pglib_opf_case4661_sdet/pglib_opf_case4661_sdet_14regions.m
% -------------------------------------------------------------------------
% Partitioned MATPOWER Case File
% Copyright (c) 2025 Milad Hasanzadeh
% Generated on: 2025-06-07
% This file contains partitioned data for 14 regions


% -------------------- mpc_regionR1 --------------------

mpc_regionR1.version = '2';
mpc_regionR1.baseMVA = 100.0000;
mpc_regionR1.bus = [
%	bus_i       type        Pd          Qd          Gs          Bs          area        Vm          Va          baseKV      zone        Vmax        Vmin        
	 1	 2	 0	 0	 0	 0	 5	 1	 0	 345	 5	 1.1	 0.9;
	 2	 1	 0	 0	 0	 0	 5	 1	 0	 345	 5	 1.1	 0.9;
	 3	 1	 71.9	-8.9	 0	 0	 5	 1	 0	 345	 5	 1.1	 0.9;
	 4	 1	 114.25	 24.5	 0	 0	 5	 1	 0	 345	 5	 1.1	 0.9;
	 5	 1	 11.57	-26.07	 0	 0	 5	 1	 0	 500	 5	 1.1	 0.9;
	 6	 1	 163.87	-27.94	 0	 0	 5	 1	 0	 500	 5	 1.1	 0.9;
	 7	 1	 0	 0	 0	 0	 5	 1	 0	 345	 5	 1.1	 0.9;
	 8	 1	 0	 0	 0	 0	 5	 1	 0	 345	 5	 1.1	 0.9;
	 9	 1	 0	 0	 0	 0	 5	 1	 0	 345	 5	 1.1	 0.9;
	 10	 1	 0	 0	 0	 0	 5	 1	 0	 345	 5	 1.1	 0.9;
	 11	 1	 0	 0	 0	 0	 5	 1	 0	 345	 5	 1.1	 0.9;
	 12	 1	 0	 0	 0	 0	 5	 1	 0	 345	 5	 1.1	 0.9;
	 13	 1	 33.52	 1.03	 0	 0	 5	 1	 0	 345	 5	 1.1	 0.9;
	 14	 1	 0	 0	 0	 0	 5	 1	 0	 345	 5	 1.1	 0.9;
	 15	 1	 0	 0	 0	 0	 5	 1	 0	 345	 5	 1.1	 0.9;
	 16	 2	 0	 0	 0	 0	 5	 1	 0	 345	 5	 1.1	 0.9;
	 17	 1	 3.97	 1	 0	 0	 5	 1	 0	 345	 5	 1.1	 0.9;
	 18	 1	 0	 0	 0	 0	 5	 1	 0	 345	 5	 1.1	 0.9;
	 19	 1	 0	 0	 0	 0	 5	 1	 0	 500	 5	 1.1	 0.9;
	 20	 2	 13	 30	 0	 0	 5	 1	 0	 345	 5	 1.1	 0.9;
	 21	 2	 39.35	 90.07	 0	 0	 5	 1	 0	 345	 5	 1.1	 0.9;
	 22	 2	 26	 60	 0	 0	 5	 1	 0	 345	 5	 1.1	 0.9;
	 23	 2	 26	 50	 0	 0	 5	 1	 0	 500	 5	 1.1	 0.9;
	 24	 2	 26	 50	 0	 0	 5	 1	 0	 500	 5	 1.1	 0.9;
	 25	 1	 0	 0	 0	 0	 5	 1	 0	 345	 5	 1.1	 0.9;
	 26	 1	 0	 0	 0	 0	 5	 1	 0	 500	 5	 1.1	 0.9;
	 27	 1	 0	 0	 0	 0	 5	 1	 0	 500	 5	 1.1	 0.9;
	 28	 2	 0	 0	 0	 0	 5	 1	 0	 500	 5	 1.1	 0.9;
	 29	 2	 0	 2.25	 0	 44.01	 5	 1	 0	 500	 5	 1.1	 0.9;
	 30	 1	 0	 0	 0	 0	 5	 1	 0	 345	 5	 1.1	 0.9;
	 31	 1	 0	 0	 0	 0	 5	 1	 0	 345	 5	 1.1	 0.9;
	 32	 1	 24.96	 41.61	 0	 0	 5	 1	 0	 345	 5	 1.1	 0.9;
	 33	 1	 0	 0	 0	 0	 5	 1	 0	 345	 5	 1.1	 0.9;
	 34	 1	 0	 0	 0	 0	 5	 1	 0	 345	 5	 1.1	 0.9;
	 35	 1	 0	 0	 0	 16.06	 5	 1	 0	 345	 5	 1.1	 0.9;
	 36	 1	 0	 0	 0	 0	 5	 1	 0	 345	 5	 1.1	 0.9;
	 37	 1	 0	 0	 0	 29.99	 5	 1	 0	 345	 5	 1.1	 0.9;
	 38	 2	 0	 0	 0	-0.22	 5	 1	 0	 345	 5	 1.1	 0.9;
	 39	 2	 0	 0	 0	 0	 5	 1	 0	 345	 5	 1.1	 0.9;
	 40	 2	 0	 0	 0	 76	 5	 1	 0	 500	 5	 1.1	 0.9;
	 41	 2	 0	 0	 0	 0	 5	 1	 0	 345	 5	 1.1	 0.9;
	 42	 2	 59.4	 11.61	 0	-17.46	 5	 1	 0	 345	 5	 1.1	 0.9;
	 43	 2	 0	 0	 0	-34.38	 5	 1	 0	 345	 5	 1.1	 0.9;
	 44	 1	 9.99	 5.11	 0	 0	 5	 1	 0	 138	 5	 1.1	 0.9;
	 45	 1	 7.68	 4.5	 0	 0	 5	 1	 0	 138	 5	 1.1	 0.9;
	 46	 1	 4.99	 1.2	 0	 0	 5	 1	 0	 138	 5	 1.1	 0.9;
	 47	 1	 6.79	 2.5	 0	 0	 5	 1	 0	 138	 5	 1.1	 0.9;
	 48	 1	 8.2	 1.8	 0	 0	 5	 1	 0	 138	 5	 1.1	 0.9;
	 49	 1	 0	 0	 0	 45	 5	 1	 0	 16	 5	 1.1	 0.9;
	 50	 1	 94.8	 46.31	 0	 0	 5	 1	 0	 138	 5	 1.1	 0.9;
	 51	 1	 113.3	 42.19	 0	 0	 5	 1	 0	 138	 5	 1.1	 0.9;
	 52	 1	 0	 0	 0	 0	 5	 1	 0	 138	 5	 1.1	 0.9;
	 53	 1	 0	 0	 0	 40.02	 5	 1	 0	 16	 5	 1.1	 0.9;
	 54	 1	 12.33	 4	 0	 0	 5	 1	 0	 138	 5	 1.1	 0.9;
	 55	 1	 22	 6.01	 0	 0	 5	 1	 0	 138	 5	 1.1	 0.9;
	 56	 1	 6.4	 1	 0	 0	 5	 1	 0	 138	 5	 1.1	 0.9;
	 57	 1	 9.64	 4	 0	 0	 5	 1	 0	 138	 5	 1.1	 0.9;
	 58	 1	 32.03	 8.01	 0	 0	 5	 1	 0	 138	 5	 1.1	 0.9;
	 59	 1	 11.28	 6.51	 0	 0	 5	 1	 0	 138	 5	 1.1	 0.9;
	 60	 1	 0	 0	 0	 0	 5	 1	 0	 138	 5	 1.1	 0.9;
	 61	 1	 4.89	 1.5	 0	 0	 5	 1	 0	 138	 5	 1.1	 0.9;
	 62	 1	 16.4	 7.51	 0	 0	 5	 1	 0	 138	 5	 1.1	 0.9;
	 63	 2	 0.99	-14.55	 0	 0	 5	 1	 0	 138	 5	 1.1	 0.9;
	 64	 1	 0.99	 0.3	 0	 0	 5	 1	 0	 138	 5	 1.1	 0.9;
	 65	 1	 3.45	 1.05	 0	 0	 5	 1	 0	 138	 5	 1.1	 0.9;
	 66	 1	 3.45	 1.05	 0	 0	 5	 1	 0	 138	 5	 1.1	 0.9;
	 67	 1	 6.41	 1.69	 0	 0	 5	 1	 0	 138	 5	 1.1	 0.9;
	 68	 1	 8.88	 2.34	 0	 0	 5	 1	 0	 138	 5	 1.1	 0.9;
	 69	 1	 38.25	 27.41	 0	 0	 5	 1	 0	 138	 5	 1.1	 0.9;
	 70	 1	 97	 33.61	 0	 0	 5	 1	 0	 138	 5	 1.1	 0.9;
	 71	 1	 20.72	 10.72	 0	 0	 5	 1	 0	 138	 5	 1.1	 0.9;
	 72	 1	 12.33	 3.38	 0	 0	 5	 1	 0	 138	 5	 1.1	 0.9;
	 73	 1	 12.33	 3.38	 0	 0	 5	 1	 0	 138	 5	 1.1	 0.9;
	 74	 1	 28.9	 9.61	 0	 0	 5	 1	 0	 138	 5	 1.1	 0.9;
	 75	 1	 6.66	 0.3	 0	 0	 5	 1	 0	 138	 5	 1.1	 0.9;
	 76	 1	 24.37	 0.45	 0	 0	 5	 1	 0	 138	 5	 1.1	 0.9;
	 77	 1	 3.38	 0.4	 0	 0	 5	 1	 0	 138	 5	 1.1	 0.9;
	 78	 1	 5.96	 1	 0	 0	 5	 1	 0	 138	 5	 1.1	 0.9;
	 79	 1	 7.85	 0.6	 0	 0	 5	 1	 0	 138	 5	 1.1	 0.9;
	 80	 1	 3.48	 0.3	 0	 0	 5	 1	 0	 138	 5	 1.1	 0.9;
	 81	 1	 2.98	 0.5	 0	 0	 5	 1	 0	 138	 5	 1.1	 0.9;
	 82	 1	 24.83	 9.51	 0	 0	 5	 1	 0	 138	 5	 1.1	 0.9;
	 83	 1	 5.56	 2.6	 0	 0	 5	 1	 0	 138	 5	 1.1	 0.9;
	 84	 1	 4.97	 1	 0	 0	 5	 1	 0	 138	 5	 1.1	 0.9;
	 85	 1	 5.96	 1.5	 0	 0	 5	 1	 0	 138	 5	 1.1	 0.9;
	 86	 1	 3.11	 1	 0	 0	 5	 1	 0	 138	 5	 1.1	 0.9;
	 87	 1	 0	 0	 0	 0	 5	 1	 0	 138	 5	 1.1	 0.9;
	 88	 1	 0.87	 0	 0	 0	 5	 1	 0	 138	 5	 1.1	 0.9;
	 89	 1	 10.43	 1	 0	 4.28	 5	 1	 0	 138	 5	 1.1	 0.9;
	 90	 1	 0.87	 0	 0	 0	 5	 1	 0	 138	 5	 1.1	 0.9;
	 91	 1	 3.97	 1	 0	 0	 5	 1	 0	 138	 5	 1.1	 0.9;
	 92	 2	 13	 30	 0	 0	 5	 1	 0	 138	 5	 1.1	 0.9;
	 93	 2	 0	-0.46	 0	 0	 5	 1	 0	 138	 5	 1.1	 0.9;
	 94	 1	 22.84	 5.51	 0	 0	 5	 1	 0	 138	 5	 1.1	 0.9;
	 95	 1	 12.41	 3.5	 0	 0	 5	 1	 0	 138	 5	 1.1	 0.9;
	 96	 2	 0.6	-6.17	 0	 0	 5	 1	 0	 138	 5	 1.1	 0.9;
	 97	 1	 10.11	 2.78	 0	 0	 5	 1	 0	 138	 5	 1.1	 0.9;
	 98	 2	 0	-0.12	 0	 0	 5	 1	 0	 138	 5	 1.1	 0.9;
	 99	 1	 4.75	 0.8	 0	 0	 5	 1	 0	 138	 5	 1.1	 0.9;
	 100	 1	 10.58	 1.39	 0	 5.15	 5	 1	 0	 138	 5	 1.1	 0.9;
	 101	 1	 6.95	 1.5	 0	 0	 5	 1	 0	 138	 5	 1.1	 0.9;
	 102	 1	 0	 0	 0	 0	 5	 1	 0	 138	 5	 1.1	 0.9;
	 103	 1	 44.19	 19.07	 0	 0	 5	 1	 0	 138	 5	 1.1	 0.9;
	 104	 1	 19.5	 1.69	 0	 0	 5	 1	 0	 138	 5	 1.1	 0.9;
	 105	 1	 2.16	 0.12	 0	 0	 5	 1	 0	 138	 5	 1.1	 0.9;
	 106	 1	 0.65	 0.06	 0	 0	 5	 1	 0	 138	 5	 1.1	 0.9;
	 107	 1	 4.27	 0.6	 0	 0	 5	 1	 0	 138	 5	 1.1	 0.9;
	 108	 1	 11	 1.63	 0	 0	 5	 1	 0	 138	 5	 1.1	 0.9;
	 109	 1	 0.99	 0	 0	 0	 5	 1	 0	 138	 5	 1.1	 0.9;
	 110	 1	 7.97	 5.78	 0	 0	 5	 1	 0	 138	 5	 1.1	 0.9;
	 111	 1	 3.97	 1	 0	 0	 5	 1	 0	 138	 5	 1.1	 0.9;
	 112	 2	 39.72	 9.51	 0	 0	 5	 1	 0	 138	 5	 1.1	 0.9;
	 113	 1	 0	 0	 0	-1.16	 5	 1	 0	 138	 5	 1.1	 0.9;
	 114	 1	 69.52	 30.03	 0	-28.38	 5	 1	 0	 138	 5	 1.1	 0.9;
	 115	 1	 7.15	 0.4	 0	 0	 5	 1	 0	 138	 5	 1.1	 0.9;
	 116	 2	 0	-0.57	 0	 0	 5	 1	 0	 138	 5	 1.1	 0.9;
	 117	 1	 4.97	 1	 0	 0	 5	 1	 0	 138	 5	 1.1	 0.9;
	 118	 2	 0.99	-0.12	 0	 0	 5	 1	 0	 138	 5	 1.1	 0.9;
	 119	 1	 6.36	 0.3	 0	 0	 5	 1	 0	 138	 5	 1.1	 0.9;
	 120	 1	 9.44	 0.2	 0	 0	 5	 1	 0	 138	 5	 1.1	 0.9;
	 121	 1	 6.95	 0.5	 0	 0	 5	 1	 0	 138	 5	 1.1	 0.9;
	 122	 1	 16.88	 5.01	 0	 0	 5	 1	 0	 138	 5	 1.1	 0.9;
	 123	 1	 8.94	 0.5	 0	 0	 5	 1	 0	 138	 5	 1.1	 0.9;
	 124	 2	 1.49	 0.5	 0	-7.95	 5	 1	 0	 138	 5	 1.1	 0.9;
	 125	 1	 14.4	 2.5	 0	 0	 5	 1	 0	 138	 5	 1.1	 0.9;
	 126	 1	 4.97	 1	 0	 0	 5	 1	 0	 138	 5	 1.1	 0.9;
	 127	 1	 0	 0	 0	 0	 5	 1	 0	 138	 5	 1.1	 0.9;
	 128	 1	 9.93	 2	 0	 0	 5	 1	 0	 138	 5	 1.1	 0.9;
	 129	 1	 14.9	 3	 0	 0	 5	 1	 0	 138	 5	 1.1	 0.9;
	 130	 1	 11.92	 2	 0	 0	 5	 1	 0	 138	 5	 1.1	 0.9;
	 131	 1	 11.02	 2.2	 0	 0	 5	 1	 0	 138	 5	 1.1	 0.9;
	 132	 1	 0.99	 0	 0	 0	 5	 1	 0	 138	 5	 1.1	 0.9;
	 133	 2	 6.89	 9.42	 0	 0	 5	 1	 0	 138	 5	 1.1	 0.9;
	 134	 1	 5.96	 1	 0	 0	 5	 1	 0	 138	 5	 1.1	 0.9;
	 135	 1	 3.97	 0.5	 0	 0	 5	 1	 0	 138	 5	 1.1	 0.9;
	 136	 1	 19.86	 6.01	 0	 0	 5	 1	 0	 138	 5	 1.1	 0.9;
	 137	 1	 0	 0	 0	 0	 5	 1	 0	 138	 5	 1.1	 0.9;
	 138	 1	 0	 0	 0	 0	 5	 1	 0	 138	 5	 1.1	 0.9;
	 139	 1	 0	 0	 0	 0	 5	 1	 0	 138	 5	 1.1	 0.9;
	 140	 1	 11.92	 2	 0	 0	 5	 1	 0	 138	 5	 1.1	 0.9;
	 141	 1	 0.99	 0	 0	 0	 5	 1	 0	 138	 5	 1.1	 0.9;
	 142	 1	 10.92	 4	 0	 0	 5	 1	 0	 138	 5	 1.1	 0.9;
	 143	 1	 0	 0	 0	 0	 5	 1	 0	 138	 5	 1.1	 0.9;
	 144	 1	 9.61	-1.6	 0	 0	 5	 1	 0	 138	 5	 1.1	 0.9;
	 145	 1	 4.97	 2	 0	 0	 5	 1	 0	 138	 5	 1.1	 0.9;
	 146	 1	 0	 0	 0	 0	 5	 1	 0	 138	 5	 1.1	 0.9;
	 147	 1	 0	 0	 0	 0	 5	 1	 0	 138	 5	 1.1	 0.9;
	 148	 1	 6.95	 1.5	 0	 0	 5	 1	 0	 138	 5	 1.1	 0.9;
	 149	 2	 172.45	 65.03	 0	 34.35	 5	 1	 0	 32	 5	 1.1	 0.9;
	 150	 1	 0	 0	 0	 36.81	 11	 1	 0	 345	 11	 1.1	 0.9;
	 151	 1	 0	 0	 0	 15.69	 11	 1	 0	 345	 11	 1.1	 0.9;
	 152	 1	 99.11	-12.01	 0	 0	 11	 1	 0	 345	 11	 1.1	 0.9;
	 153	 1	 0	 0	 0	 0	 11	 1	 0	 345	 11	 1.1	 0.9;
	 154	 1	 0	 0	 0	 0	 11	 1	 0	 500	 11	 1.1	 0.9;
	 155	 1	 0	 0	 0	 0	 11	 1	 0	 500	 11	 1.1	 0.9;
	 156	 1	 229.51	 62.3	 0	 0	 11	 1	 0	 500	 11	 1.1	 0.9;
	 157	 2	 210.82	 61.83	 0	 0	 11	 1	 0	 345	 11	 1.1	 0.9;
	 158	 1	 107.54	 66.18	 0	 0	 11	 1	 0	 345	 11	 1.1	 0.9;
	 159	 1	 317.85	-35.97	 0	 0	 11	 1	 0	 345	 11	 1.1	 0.9;
	 160	 1	 0	 0	 0	 0	 11	 1	 0	 500	 11	 1.1	 0.9;
	 161	 1	 0	 0	 0	 0	 11	 1	 0	 500	 11	 1.1	 0.9;
	 162	 1	 165.07	 42.64	 0	 0	 11	 1	 0	 500	 11	 1.1	 0.9;
	 163	 2	 60	 120	 0	 0	 11	 1	 0	 500	 11	 1.1	 0.9;
	 164	 2	 60	 120	 0	 0	 11	 1	 0	 500	 11	 1.1	 0.9;
	 165	 1	 102.81	 48.45	 0	 0	 11	 1	 0	 500	 11	 1.1	 0.9;
	 166	 1	 0	 0	 0	 0	 11	 1	 0	 500	 11	 1.1	 0.9;
	 167	 2	 0	 0	 0	 0	 11	 1	 0	 500	 11	 1.1	 0.9;
	 168	 1	 0	 0	 0	 0	 11	 1	 0	 500	 11	 1.1	 0.9;
	 169	 2	 10	 44	 0	-1.5	 11	 1	 0	 345	 11	 1.1	 0.9;
	 170	 1	 1171.44	 194.45	 0	 0	 11	 1	 0	 500	 11	 1.1	 0.9;
	 171	 1	 378.52	-23.06	 0	 0	 11	 1	 0	 500	 11	 1.1	 0.9;
	 172	 1	 0	 0	 0	 0	 11	 1	 0	 500	 11	 1.1	 0.9;
	 173	 2	 202.71	 85.13	 0	 0	 11	 1	 0	 24	 11	 1.1	 0.9;
	 174	 1	 0	 0	 0	 37.29	 11	 1	 0	 32	 11	 1.1	 0.9;
	 175	 1	 1.07	 0.19	 0	 0	 11	 1	 0	 138	 11	 1.1	 0.9;
	 176	 2	 0.21	 0.28	 0	-5.71	 11	 1	 0	 138	 11	 1.1	 0.9;
	 177	 1	 1.86	 12.74	 0	 0	 11	 1	 0	 138	 11	 1.1	 0.9;
	 178	 1	 0.2	 0.49	 0	 0	 11	 1	 0	 138	 11	 1.1	 0.9;
	 179	 2	 0	 0.38	 0	 0	 11	 1	 0	 138	 11	 1.1	 0.9;
	 180	 2	 15.67	 2.61	 0	 0	 12	 1	 0	 138	 12	 1.1	 0.9;
	 181	 1	 81.5	 85.9	 0	-10	 14	 1	 0	 345	 14	 1.1	 0.9;
	 182	 1	 0	 0	 0	 0	 14	 1	 0	 500	 14	 1.1	 0.9;
	 183	 2	 0	 0	 0	 0	 14	 1	 0	 500	 14	 1.1	 0.9;
	 184	 1	 0	 0	 0	 0	 14	 1	 0	 500	 14	 1.1	 0.9;
	 185	 1	 0	 0	 0	 0	 14	 1	 0	 500	 14	 1.1	 0.9;
	 186	 1	 154.6	 71.72	 0	 0	 14	 1	 0	 500	 14	 1.1	 0.9;
	 187	 2	 0	 0	 0	-2.24	 14	 1	 0	 345	 14	 1.1	 0.9;
	 188	 2	 0	 0	 0	-290.32	 14	 1	 0	 500	 14	 1.1	 0.9;
	 189	 1	 0	 0	 0	 0	 14	 1	 0	 500	 14	 1.1	 0.9;
	 190	 1	 0	 0	 0	 0	 14	 1	 0	 500	 14	 1.1	 0.9;
	 191	 2	 0	 0	 0	-100.52	 14	 1	 0	 500	 14	 1.1	 0.9;
	 192	 1	 86.89	 60.16	 0	 0	 14	 1	 0	 500	 14	 1.1	 0.9;
	 193	 1	 0	 0	 0	 70	 14	 1	 0	 500	 14	 1.1	 0.9;
	 194	 1	 0	 0	 0	 0	 14	 1	 0	 500	 14	 1.1	 0.9;
	 195	 2	 11	 40	 0	 0	 14	 1	 0	 500	 14	 1.1	 0.9;
	 196	 2	 5	 10	 0	 0	 14	 1	 0	 500	 14	 1.1	 0.9;
	 197	 1	 6.93	 3.11	 0	 0	 14	 1	 0	 138	 14	 1.1	 0.9;
	 198	 2	 14.65	 1	 0	 0	 14	 1	 0	 138	 14	 1.1	 0.9;
	 199	 2	 8.14	 1.32	 0	 0	 14	 1	 0	 138	 14	 1.1	 0.9;
	 200	 1	 14.17	 4.22	 0	 0	 14	 1	 0	 138	 14	 1.1	 0.9;
...
];

mpc_regionR1.gen = [
%	bus         Pg          Qg          Qmax        Qmin        Vg          mBase       status      Pmax        Pmin        Pc1         Pc2         Qc1min      Qc1max      Qc2min      Qc2max      ramp_agc    ramp_10     ramp_30     ramp_q      apf         
	 1	 138.315	 84.09	 179	-10.82	 1	 100	 1	 187.96	 88.67	 0	 0	 0	 0	 0	 0	 0	 0	 0	 0	 187.961;
	 16	 78.275	-1.675	 20.33	-23.68	 1	 100	 1	 113.92	 42.63	 0	 0	 0	 0	 0	 0	 0	 0	 0	 0	 113.922;
	 20	 183.125	 59.5	 152	-33	 1	 306.24	 1	 256.25	 110	 0	 0	 0	 0	 0	 0	 0	 0	 0	 0	 256.25;
	 20	 0	 0	 73.33	-73.33	 1	 220	 0	 220	 125	 0	 0	 0	 0	 0	 0	 0	 0	 0	 0	 220;
	 21	 0	 0	 75	-75	 1	 225	 0	 225	 125	 0	 0	 0	 0	 0	 0	 0	 0	 0	 0	 225;
	 21	 183.125	 76.625	 186.25	-33	 1	 304.12	 1	 256.25	 110	 0	 0	 0	 0	 0	 0	 0	 0	 0	 0	 256.25;
	 22	 195.625	 53.875	 149	-41.25	 1	 274.96	 1	 281.25	 110	 0	 0	 0	 0	 0	 0	 0	 0	 0	 0	 281.25;
	 22	 172.5	 53.875	 149	-41.25	 1	 228.01	 1	 225	 120	 0	 0	 0	 0	 0	 0	 0	 0	 0	 0	 225;
	 23	 395	 158	 363	-47	 1	 535	 1	 535	 255	 0	 0	 0	 0	 0	 0	 0	 0	 0	 0	 535;
	 24	 405	 124	 348	-100	 1	 560	 1	 560	 250	 0	 0	 0	 0	 0	 0	 0	 0	 0	 0	 560;
	 28	 154.8	-3.015	 24.12	-30.15	 1	 100	 1	 233.66	 75.94	 0	 0	 0	 0	 0	 0	 0	 0	 0	 0	 233.656;
	 29	 0	 0	 75	-75	 1	 225	 0	 225	 129	 0	 0	 0	 0	 0	 0	 0	 0	 0	 0	 225;
	 29	 0	 0	 75	-75	 1	 225	 0	 225	 129	 0	 0	 0	 0	 0	 0	 0	 0	 0	 0	 225;
	 29	 0	 0	 33.33	-33.33	 1	 100	 0	 90.65	 75.65	 0	 0	 0	 0	 0	 0	 0	 0	 0	 0	 90.647;
	 38	 0	 0	 33.33	-33.33	 1	 100	 0	 30.22	 15.22	 0	 0	 0	 0	 0	 0	 0	 0	 0	 0	 30.222;
	 39	 41.51	 91.19	 191	-8.62	 1	 100	 1	 74.82	 8.2	 0	 0	 0	 0	 0	 0	 0	 0	 0	 0	 74.821;
	 40	 0	 0	 33.33	-33.33	 1	 100	 0	 90.09	 75.09	 0	 0	 0	 0	 0	 0	 0	 0	 0	 0	 90.088;
	 41	 49.315	-2.515	 20.15	-25.18	 1	 100	 1	 88.02	 10.61	 0	 0	 0	 0	 0	 0	 0	 0	 0	 0	 88.022;
	 42	 0	 0	 33.33	-33.33	 1	 100	 0	 57.35	 42.35	 0	 0	 0	 0	 0	 0	 0	 0	 0	 0	 57.353;
	 43	 0	 0	 33.33	-33.33	 1	 100	 0	 284	 1.16	 0	 0	 0	 0	 0	 0	 0	 0	 0	 0	 284;
	 63	 0	 0	 1.33	-1.33	 1	 4	 0	 297	 3	 0	 0	 0	 0	 0	 0	 0	 0	 0	 0	 297;
	 92	 195.625	 58	 149	-33	 1	 249.58	 1	 256.25	 135	 0	 0	 0	 0	 0	 0	 0	 0	 0	 0	 256.25;
	 93	 0	 0	 75	-75	 1	 225	 0	 225	 110	 0	 0	 0	 0	 0	 0	 0	 0	 0	 0	 225;
	 96	 0	 0	 56.67	-56.67	 1	 170	 0	 170	 66	 0	 0	 0	 0	 0	 0	 0	 0	 0	 0	 170;
	 96	 0	 0	 20.33	-20.33	 1	 61	 0	 61	 34	 0	 0	 0	 0	 0	 0	 0	 0	 0	 0	 61;
	 98	 0	 0	 7	-7	 1	 21	 0	 21	 0	 0	 0	 0	 0	 0	 0	 0	 0	 0	 0	 21;
	 112	 63.07	 89.51	 185	-5.98	 1	 100	 1	 97	 29.14	 0	 0	 0	 0	 0	 0	 0	 0	 0	 0	 96.995;
	 116	 0	 0	 12	-12	 1	 36	 0	 36	 0	 0	 0	 0	 0	 0	 0	 0	 0	 0	 0	 36;
	 118	 0	 0	 1	-1	 1	 3	 0	 295	 2	 0	 0	 0	 0	 0	 0	 0	 0	 0	 0	 295;
	 124	 0	 0	 33.33	-33.33	 1	 100	 0	 295	 3.64	 0	 0	 0	 0	 0	 0	 0	 0	 0	 0	 295;
	 133	 0	 0	 2	-2	 1	 6	 0	 283	 1	 0	 0	 0	 0	 0	 0	 0	 0	 0	 0	 283;
	 149	 56	 3	 190	-184	 1	 112	 1	 112	 0	 0	 0	 0	 0	 0	 0	 0	 0	 0	 0	 112;
	 157	 165.5	 50.5	 162	-61	 1	 221	 1	 221	 110	 0	 0	 0	 0	 0	 0	 0	 0	 0	 0	 221;
	 163	 755.325	 85.5	 190	-19	 1	 616.84	 1	 1091.15	 419.5	 0	 0	 0	 0	 0	 0	 0	 0	 0	 0	 1091.147;
	 163	 755.325	 85.5	 190	-19	 1	 616.84	 1	 1091.15	 419.5	 0	 0	 0	 0	 0	 0	 0	 0	 0	 0	 1091.147;
	 163	 755.325	 85.5	 190	-19	 1	 616.84	 1	 1091.15	 419.5	 0	 0	 0	 0	 0	 0	 0	 0	 0	 0	 1091.147;
	 164	 351.25	 85.5	 190	-19	 1	 451.84	 1	 462.5	 240	 0	 0	 0	 0	 0	 0	 0	 0	 0	 0	 462.5;
	 164	 332.5	 85.5	 190	-19	 1	 416.51	 1	 425	 240	 0	 0	 0	 0	 0	 0	 0	 0	 0	 0	 425;
	 164	 332.5	 85.5	 190	-19	 1	 416.51	 1	 425	 240	 0	 0	 0	 0	 0	 0	 0	 0	 0	 0	 425;
	 167	 162.355	-14.26	 114.1	-142.62	 1	 100	 1	 214.28	 110.43	 0	 0	 0	 0	 0	 0	 0	 0	 0	 0	 214.279;
	 169	 194.375	 53.75	 120	-12.5	 1	 281.34	 1	 268.75	 120	 0	 0	 0	 0	 0	 0	 0	 0	 0	 0	 268.75;
	 169	 0	 0	 33.33	-33.33	 1	 100	 0	 85	 70	 0	 0	 0	 0	 0	 0	 0	 0	 0	 0	 84.998;
	 173	 338.75	 109.25	 237.5	-19	 1	 477.9	 1	 437.5	 240	 0	 0	 0	 0	 0	 0	 0	 0	 0	 0	 437.5;
	 176	 0	 0	 33.33	-33.33	 1	 100	 0	 35.9	 20.9	 0	 0	 0	 0	 0	 0	 0	 0	 0	 0	 35.9;
	 179	 34.725	-3.195	 25.53	-31.92	 1	 100	 1	 54.75	 14.7	 0	 0	 0	 0	 0	 0	 0	 0	 0	 0	 54.752;
	 180	 144.825	-1.39	 11.1	-13.88	 1	 100	 1	 287	 2.65	 0	 0	 0	 0	 0	 0	 0	 0	 0	 0	 287;
	 183	 88.705	-9.365	 74.9	-93.63	 1	 100	 1	 137.96	 39.45	 0	 0	 0	 0	 0	 0	 0	 0	 0	 0	 137.965;
	 187	 0	 0	 33.33	-33.33	 1	 100	 0	 53.54	 38.54	 0	 0	 0	 0	 0	 0	 0	 0	 0	 0	 53.537;
	 188	 0	 0	 33.33	-33.33	 1	 100	 0	 284.08	 269.08	 0	 0	 0	 0	 0	 0	 0	 0	 0	 0	 284.075;
	 191	 0	 0	 33.33	-33.33	 1	 100	 0	 42.02	 27.02	 0	 0	 0	 0	 0	 0	 0	 0	 0	 0	 42.024;
	 195	-10.5	 21.5	 105	-62	 1	 216.55	 1	 179	-200	 0	 0	 0	 0	 0	 0	 0	 0	 0	 0	 179;
	 195	-10.5	 21.5	 105	-62	 1	 179	 1	 179	-200	 0	 0	 0	 0	 0	 0	 0	 0	 0	 0	 179;
	 195	-10.5	 27.5	 130	-75	 1	 179	 1	 179	-200	 0	 0	 0	 0	 0	 0	 0	 0	 0	 0	 179;
	 196	-10.5	 30	 160	-100	 1	 179	 1	 179	-200	 0	 0	 0	 0	 0	 0	 0	 0	 0	 0	 179;
	 198	 40.5	-67.5	 35	-170	 1	 58.99	 1	 55	 26	 0	 0	 0	 0	 0	 0	 0	 0	 0	 0	 55;
	 199	 0	 0	 18.33	-18.33	 1	 55	 0	 55	 26	 0	 0	 0	 0	 0	 0	 0	 0	 0	 0	 55;
	 201	 137	 16.5	 199	-166	 1	 0.36	 1	 274	 0	 0	 0	 0	 0	 0	 0	 0	 0	 0	 0	 274;
	 207	 9	 0.5	 179	-178	 1	 18	 1	 18	 0	 0	 0	 0	 0	 0	 0	 0	 0	 0	 0	 18;
	 208	 11	 7.5	 184	-169	 1	 22	 1	 22	 0	 0	 0	 0	 0	 0	 0	 0	 0	 0	 0	 22;
	 213	 135	 6	 192	-180	 1	 0.24	 1	 270	 0	 0	 0	 0	 0	 0	 0	 0	 0	 0	 0	 270;
	 215	 0	 0	 33.33	-33.33	 1	 100	 0	 294	 7.66	 0	 0	 0	 0	 0	 0	 0	 0	 0	 0	 294;
	 218	 145.5	 10.5	 195	-174	 1	 2	 1	 290	 1	 0	 0	 0	 0	 0	 0	 0	 0	 0	 0	 290;
	 224	 146	 7	 192	-178	 1	 1	 1	 292	 0	 0	 0	 0	 0	 0	 0	 0	 0	 0	 0	 292;
	 225	 141	 4	 187	-179	 1	 1.08	 1	 282	 0	 0	 0	 0	 0	 0	 0	 0	 0	 0	 0	 282;
	 231	 144.5	 4.5	 176	-167	 1	 0.12	 1	 289	 0	 0	 0	 0	 0	 0	 0	 0	 0	 0	 0	 289;
	 237	 130	 3.5	 189	-182	 1	 9	 1	 260	 0	 0	 0	 0	 0	 0	 0	 0	 0	 0	 0	 260;
	 239	 125.5	 5	 183	-173	 1	 0.24	 1	 251	 0	 0	 0	 0	 0	 0	 0	 0	 0	 0	 0	 251;
	 252	 195.75	 51.25	 120	-17.5	 1	 252.56	 1	 262.5	 129	 0	 0	 0	 0	 0	 0	 0	 0	 0	 0	 262.5;
	 253	 195.815	 51.25	 120	-17.5	 1	 270.01	 1	 262.63	 129	 0	 0	 0	 0	 0	 0	 0	 0	 0	 0	 262.632;
	 253	 195.815	 43.25	 99	-12.5	 1	 234.01	 1	 262.63	 129	 0	 0	 0	 0	 0	 0	 0	 0	 0	 0	 262.632;
	 254	 0	 0	 75	-75	 1	 225	 0	 225	 129	 0	 0	 0	 0	 0	 0	 0	 0	 0	 0	 225;
	 254	 0	 0	 75	-75	 1	 225	 0	 225	 129	 0	 0	 0	 0	 0	 0	 0	 0	 0	 0	 225;
	 255	 205.125	 56.875	 123.75	-10	 1	 270.05	 1	 281.25	 129	 0	 0	 0	 0	 0	 0	 0	 0	 0	 0	 281.25;
	 255	 198.875	 68	 150	-14	 1	 258.06	 1	 268.75	 129	 0	 0	 0	 0	 0	 0	 0	 0	 0	 0	 268.75;
	 256	 0	 0	 33.33	-33.33	 1	 100	 0	 83.97	 68.97	 0	 0	 0	 0	 0	 0	 0	 0	 0	 0	 83.972;
	 260	 17.35	-2.49	 19.91	-24.89	 1	 100	 1	 27.31	 7.39	 0	 0	 0	 0	 0	 0	 0	 0	 0	 0	 27.308;
	 261	 0	 0	 33.33	-33.33	 1	 100	 0	 55.35	 40.35	 0	 0	 0	 0	 0	 0	 0	 0	 0	 0	 55.348;
	 264	 0	 0	 33.33	-33.33	 1	 100	 0	 113.07	 98.07	 0	 0	 0	 0	 0	 0	 0	 0	 0	 0	 113.068;
	 273	 0	 0	 1	-1	 1	 3	 0	 260	 0	 0	 0	 0	 0	 0	 0	 0	 0	 0	 0	 260;
	 286	 0	 0	 1	-1	 1	 3	 0	 255	 0	 0	 0	 0	 0	 0	 0	 0	 0	 0	 0	 255;
	 291	 0	 0	 33.33	-33.33	 1	 100	 0	 35.37	 20.37	 0	 0	 0	 0	 0	 0	 0	 0	 0	 0	 35.372;
	 295	 0	 0	 3.33	-3.33	 1	 10	 0	 10	 0	 0	 0	 0	 0	 0	 0	 0	 0	 0	 0	 10;
	 299	 15	 2	 176	-172	 1	 30	 1	 30	 0	 0	 0	 0	 0	 0	 0	 0	 0	 0	 0	 30;
	 301	 143	-2	 180	-184	 1	 2	 1	 286	 0	 0	 0	 0	 0	 0	 0	 0	 0	 0	 0	 286;
	 302	 0	 0	 33.33	-33.33	 1	 100	 0	 274	 0.15	 0	 0	 0	 0	 0	 0	 0	 0	 0	 0	 274;
	 304	 177	 53	 120	-14	 1	 228.26	 1	 225	 129	 0	 0	 0	 0	 0	 0	 0	 0	 0	 0	 225;
	 307	 0	 0	 33.67	-33.67	 1	 101	 0	 101	 49	 0	 0	 0	 0	 0	 0	 0	 0	 0	 0	 101;
	 310	 0	 0	 4	-4	 1	 12	 0	 12	 0	 0	 0	 0	 0	 0	 0	 0	 0	 0	 0	 12;
	 317	 6	-68.5	 30	-167	 1	 12	 1	 12	 0	 0	 0	 0	 0	 0	 0	 0	 0	 0	 0	 12;
	 320	 139	 5	 192	-182	 1	 8	 1	 278	 0	 0	 0	 0	 0	 0	 0	 0	 0	 0	 0	 278;
	 323	 0	 0	 22.67	-22.67	 1	 68	 0	 68	 5	 0	 0	 0	 0	 0	 0	 0	 0	 0	 0	 68;
	 323	 36.5	-74.5	 23	-172	 1	 73.22	 1	 68	 5	 0	 0	 0	 0	 0	 0	 0	 0	 0	 0	 68;
	 323	 0	 0	 10.33	-10.33	 1	 31	 0	 31	-32	 0	 0	 0	 0	 0	 0	 0	 0	 0	 0	 31;
	 323	 0	 0	 10.33	-10.33	 1	 31	 0	 31	-32	 0	 0	 0	 0	 0	 0	 0	 0	 0	 0	 31;
	 334	 19.375	 5.5	 189	-178	 1	 37.2	 1	 38.75	 0	 0	 0	 0	 0	 0	 0	 0	 0	 0	 0	 38.75;
	 334	 15.5	 10.5	 190	-169	 1	 31	 1	 31	 0	 0	 0	 0	 0	 0	 0	 0	 0	 0	 0	 31;
	 335	 0	 0	 8.33	-8.33	 1	 25	 0	 25	 0	 0	 0	 0	 0	 0	 0	 0	 0	 0	 0	 25;
	 335	 0	 0	 8.33	-8.33	 1	 25	 0	 25	 0	 0	 0	 0	 0	 0	 0	 0	 0	 0	 0	 25;
	 349	 0	 0	 33.33	-33.33	 1	 100	 0	 257	 2.38	 0	 0	 0	 0	 0	 0	 0	 0	 0	 0	 257;
	 392	 9.75	 13	 198	-172	 1	 17.9	 1	 17.5	 2	 0	 0	 0	 0	 0	 0	 0	 0	 0	 0	 17.5;
	 392	 9.44	 7.5	 192	-177	 1	 17.35	 1	 16.88	 2	 0	 0	 0	 0	 0	 0	 0	 0	 0	 0	 16.875;
	 392	 9.44	 9	 185	-167	 1	 17.35	 1	 16.88	 2	 0	 0	 0	 0	 0	 0	 0	 0	 0	 0	 16.875;
	 392	 137	 11.5	 197	-174	 1	 4.56	 1	 274	 0	 0	 0	 0	 0	 0	 0	 0	 0	 0	 0	 274;
	 392	 130	 2	 177	-173	 1	 5.04	 1	 260	 0	 0	 0	 0	 0	 0	 0	 0	 0	 0	 0	 260;
	 392	 0	 0	 4.67	-4.67	 1	 14	 0	 14	 2	 0	 0	 0	 0	 0	 0	 0	 0	 0	 0	 14;
	 413	 62	 8	 191	-175	 1	 136.57	 1	 124	 0	 0	 0	 0	 0	 0	 0	 0	 0	 0	 0	 124;
];

mpc_regionR1.branch = [
%	fbus        tbus        r           x           b           rateA       rateB       rateC       ratio       angle       status      angmin      angmax      
	 1	 8	 0.013	 0.09781	 0.14013	 375	 375	 375	 0	 0	 1	-30	 30;
	 2	 3	 2e-05	 0.00021	 0	 876	 876	 876	 0	 0	 1	-30	 30;
	 4	 2	 0.00079	 0.07524	 0	 160	 160	 160	 0.9999	 0	 1	-30	 30;
	 2	 7	 0.00558	 0.04147	 0.0629	 231	 231	 231	 0	 0	 1	-30	 30;
	 3	 5	 0.00064	 0.0305	 0	 400	 400	 400	 1.09271	 0	 1	-30	 30;
	 49	 4	-0.00024	 0.15701	 0	 83.84	 108.99	 108.99	 0.94157	 0	 1	-30	 30;
	 5	 6	 1e-05	 6e-05	 0	 1593	 1593	 1593	 0	 0	 1	-30	 30;
	 5	 191	 0.0001	 0.01	 0	 395.28	 474.34	 592.92	 0	 0	 1	-30	 30;
	 6	 23	 0.0015	 0.01506	 0.4032	 1154	 1154	 1154	 0	 0	 1	-30	 30;
	 7	 8	 2e-05	 0.00021	 0	 876	 876	 876	 0	 0	 1	-30	 30;
	 9	 7	 0.00059	 0.07897	 0	 160	 160	 160	 0.9999	 0	 1	-30	 30;
	 7	 22	 0.01457	 0.07362	 0.13344	 515.45	 670.08	 670.08	 0	 0	 1	-30	 30;
	 52	 7	 0.00165	 0.06775	 0	 160	 160	 160	 1.08569	 0	 1	-30	 30;
	 10	 8	 0.00062	 0.08296	 0	 160	 160	 160	 0.9999	 0	 1	-30	 30;
	 8	 12	 0.00442	 0.02374	 0.04477	 339	 339	 339	 0	 0	 1	-30	 30;
	 8	 13	 0.00525	 0.03847	 0.06053	 231	 231	 231	 0	 0	 1	-30	 30;
	 8	 14	 0.00089	 0.0063	 0.0108	 231	 231	 231	 0	 0	 1	-30	 30;
	 50	 9	 0.0006	-0.01352	 0	 160	 160	 160	 1.07516	 0	 1	-30	 30;
	 53	 9	-0.00467	 0.16067	 0	 260	 312	 390	 0.94157	 0	 1	-30	 30;
	 51	 10	 0.00062	 0.01547	 0	 160	 160	 160	 1.07516	 0	 1	-30	 30;
	 11	 12	 2e-05	 0.00021	 0	 876	 876	 876	 0	 0	 1	-30	 30;
	 11	 21	 0.01174	 0.07014	 0.12689	 419.34	 545.14	 545.14	 0	 0	 1	-30	 30;
	 54	 11	 0.00165	 0.06901	 0	 198.23	 257.7	 257.7	 1.05853	 0	 1	-30	 30;
	 55	 12	 0.00165	 0.06901	 0	 160	 160	 160	 1.06912	 0	 1	-30	 30;
	 13	 187	 0.0001	 0.01	 0	 83.7	 98.6	 125.55	 0	 0	 1	-30	 30;
	 70	 14	 0.00165	 0.06901	 0	 160	 160	 160	 1.09281	 0	 1	-30	 30;
	 15	 31	 0.00657	 0.0481	 0.0727	 319	 319	 319	 0	 0	 1	-30	 30;
	 15	 36	 0.0114	 0.06587	 0.09975	 274	 274	 274	 0	 0	 1	-30	 30;
	 75	 15	 0.0014	 0.0668	 0	 160	 160	 160	 1.01196	 0	 1	-30	 30;
	 16	 36	 0.00452	 0.03366	 0.05156	 341	 341	 341	 0	 0	 1	-30	 30;
	 16	 151	 0.0001	 0.01	 0	 116.36	 139.63	 174.53	 0	 0	 1	-30	 30;
	 17	 18	 2e-05	 0.00021	 0	 876	 876	 876	 0	 0	 1	-30	 30;
	 17	 25	 0.00242	 0.01531	 0.02249	 287	 287	 287	 0	 0	 1	-30	 30;
	 17	 33	 0.01219	 0.0637	 0.09333	 266	 266	 266	 0	 0	 1	-30	 30;
	 17	 39	 0.01116	 0.07171	 0.10367	 267	 267	 267	 0	 0	 1	-30	 30;
	 18	 19	 0.00034	 0.02097	 0	 500	 500	 500	 1.0755	 0	 1	-30	 30;
	 18	 32	 0.00246	 0.01826	 0.02798	 231	 231	 231	 0	 0	 1	-30	 30;
	 18	 42	 0.01488	 0.08161	 0.1148	 266	 266	 266	 0	 0	 1	-30	 30;
	 19	 29	 0.00218	 0.02536	 0.68579	 838	 838	 838	 0	 0	 1	-30	 30;
	 20	 21	 2e-05	 0.00021	 0	 876	 876	 876	 0	 0	 1	-30	 30;
	 20	 22	 2e-05	 0.00021	 0	 876	 876	 876	 0	 0	 1	-30	 30;
	 20	 30	 0.00543	 0.03733	 0.06668	 341	 341	 341	 0	 0	 1	-30	 30;
	 20	 33	 0.00618	 0.04353	 0.07649	 341	 341	 341	 0	 0	 1	-30	 30;
	 92	 20	 0.00157	 0.06775	 0	 160	 160	 160	 1.01196	 0	 1	-30	 30;
	 21	 34	 0.00618	 0.04353	 0.07649	 266	 266	 266	 0	 0	 1	-30	 30;
	 93	 21	 0.00157	 0.06775	 0	 160	 160	 160	 1.01196	 0	 1	-30	 30;
	 22	 24	 0.00034	 0.02097	 0	 500	 500	 500	 1.07313	 0	 1	-30	 30;
	 22	 31	 0.00543	 0.03733	 0.06668	 341	 341	 341	 0	 0	 1	-30	 30;
	 23	 24	 1e-05	 6e-05	 0	 1593	 1593	 1593	 0	 0	 1	-30	 30;
	 23	 27	 0.00184	 0.02139	 0.5777	 838	 838	 838	 0	 0	 1	-30	 30;
	 24	 26	 0.0017	 0.01977	 0.53386	 838	 838	 838	 0	 0	 1	-30	 30;
	 94	 25	 0.00163	 0.06946	 0	 160	 160	 160	 1.01196	 0	 1	-30	 30;
	 102	 26	 0.00135	 0.06052	 0	 250	 250	 250	 1.07213	 0	 1	-30	 30;
	 27	 28	 1e-05	 6e-05	 0	 1593	 1593	 1593	 0	 0	 1	-30	 30;
	 114	 27	 0.00139	 0.05984	 0	 250	 250	 250	 1.06772	 0	 1	-30	 30;
	 30	 31	 2e-05	 0.00021	 0	 876	 876	 876	 0	 0	 1	-30	 30;
	 30	 34	 0.01054	 0.06151	 0.09306	 197	 197	 197	 0	 0	 1	-30	 30;
	 149	 30	 0.00502	 0.22855	 0	 80	 80	 80	 0.96759	 0	 1	-30	 30;
	 149	 30	 0.00478	 0.23168	 0	 80	 80	 80	 0.96759	 0	 1	-30	 30;
	 149	 31	 0.00477	 0.23469	 0	 80	 80	 80	 0.96759	 0	 1	-30	 30;
	 33	 34	 2e-05	 0.00021	 0	 876	 876	 876	 0	 0	 1	-30	 30;
	 127	 33	 0.00163	 0.06783	 0	 160	 160	 160	 1.00562	 0	 1	-30	 30;
	 126	 34	 0.00143	 0.06831	 0	 160	 160	 160	 1.00143	 0	 1	-30	 30;
	 35	 36	 0.00134	 0.00996	 0.01337	 287	 287	 287	 0	 0	 1	-30	 30;
	 35	 260	 0.0001	 0.01	 0	 121.19	 145.43	 181.78	 0	 0	 1	-30	 30;
	 37	 39	 0.00207	 0.01279	 0.02055	 480.61	 576.73	 720.91	 0	 0	 1	-30	 30;
	 38	 39	 2e-05	 0.00021	 0	 876	 876	 876	 0	 0	 1	-30	 30;
	 38	 152	 0.0001	 0.01	 0	 148.23	 177.88	 222.35	 0	 0	 1	-30	 30;
	 39	 40	 0.0004	 0.0253	 0	 500	 500	 500	 1.0457	 0	 1	-30	 30;
	 39	 43	 0.00083	 0.00525	 0.00868	 250	 250	 250	 0	 0	 1	-30	 30;
	 39	 150	 0.0001	 0.01	 0	 285.72	 342.86	 428.58	 0	 0	 1	-30	 30;
	 40	 255	 0.0001	 0.01	 0	 83.7	 98.6	 125.55	 0	 0	 1	-30	 30;
	 41	 42	 0.00316	 0.02378	 0.03527	 231	 231	 231	 0	 0	 1	-30	 30;
	 42	 248	 0.0001	 0.01	 0	 83.7	 98.6	 125.55	 0	 0	 1	-30	 30;
	 44	 45	 8e-05	 0.00083	 0	 438	 438	 438	 0	 0	 1	-30	 30;
	 44	 93	 0.05661	 0.1305	 0.013	 55	 55	 55	 0	 0	 1	-30	 30;
	 45	 56	 0.01777	 0.03124	 0.00297	 55	 55	 55	 0	 0	 1	-30	 30;
	 46	 54	 0.03182	 0.05851	 0.00559	 55	 55	 55	 0	 0	 1	-30	 30;
	 47	 55	 0.03256	 0.06124	 0.00549	 55	 55	 55	 0	 0	 1	-30	 30;
	 48	 54	 0.00607	 0.01757	 0.00407	 76	 76	 76	 0	 0	 1	-30	 30;
	 50	 63	 0.00161	 0.00521	 0.00055	 126.61	 151.93	 189.91	 0	 0	 1	-30	 30;
	 51	 52	 8e-05	 0.00083	 0	 438	 438	 438	 0	 0	 1	-30	 30;
	 51	 67	 0.00401	 0.01293	 0.00137	 70	 70	 70	 0	 0	 1	-30	 30;
	 52	 57	 0.01223	 0.02868	 0.00295	 129	 129	 129	 0	 0	 1	-30	 30;
	 52	 66	 0.00212	 0.00684	 0.00073	 93	 93	 93	 0	 0	 1	-30	 30;
	 52	 71	 0.00382	 0.02652	 0.00281	 137	 137	 137	 0	 0	 1	-30	 30;
	 54	 58	 0.01061	 0.03423	 0.00363	 166.11	 199.33	 249.17	 0	 0	 1	-30	 30;
	 54	 62	 0.04058	 0.07612	 0.00678	 98.84	 128.49	 128.49	 0	 0	 1	-30	 30;
	 55	 68	 0.01202	 0.03521	 0.00986	 76	 76	 76	 0	 0	 1	-30	 30;
	 55	 73	 0.01963	 0.06331	 0.00672	 93	 93	 93	 0	 0	 1	-30	 30;
	 55	 82	 0.07463	 0.13025	 0.01244	 87.68	 113.99	 113.99	 0	 0	 1	-30	 30;
	 58	 64	 0.01381	 0.04492	 0.00795	 122.87	 147.44	 184.3	 0	 0	 1	-30	 30;
	 59	 92	 0.01636	 0.05314	 0.00619	 71	 71	 71	 0	 0	 1	-30	 30;
	 59	 131	 0.05223	 0.09008	 0.00866	 55	 55	 55	 0	 0	 1	-30	 30;
	 60	 61	 8e-05	 0.00083	 0	 438	 438	 438	 0	 0	 1	-30	 30;
	 60	 93	 0.05653	 0.18587	 0.01908	 71	 71	 71	 0	 0	 1	-30	 30;
	 63	 64	 8e-05	 0.00083	 0	 438	 438	 438	 0	 0	 1	-30	 30;
	 65	 66	 8e-05	 0.00083	 0	 438	 438	 438	 0	 0	 1	-30	 30;
	 65	 72	 0.00316	 0.01018	 0.00108	 93	 93	 93	 0	 0	 1	-30	 30;
	 69	 71	 0.00064	 0.0041	 0.02001	 105	 105	 105	 0	 0	 1	-30	 30;
	 72	 73	 8e-05	 0.00083	 0	 438	 438	 438	 0	 0	 1	-30	 30;
	 74	 75	 8e-05	 0.00083	 0	 438	 438	 438	 0	 0	 1	-30	 30;
	 74	 96	 0.00397	 0.01298	 0.00133	 120	 120	 120	 0	 0	 1	-30	 30;
	 75	 96	 0.00397	 0.01281	 0.00131	 120	 120	 120	 0	 0	 1	-30	 30;
	 75	 106	 0.00413	 0.03066	 0.00293	 137	 137	 137	 0	 0	 1	-30	 30;
	 75	 107	 0.00562	 0.00992	 0.00092	 58	 58	 58	 0	 0	 1	-30	 30;
	 75	 108	 0.01372	 0.04438	 0.00454	 90	 90	 90	 0	 0	 1	-30	 30;
	 76	 137	 0.04	 0.06182	 0.00676	 79	 79	 79	 0	 0	 1	-30	 30;
	 76	 141	 0.01025	 0.0181	 0.0017	 79	 79	 79	 0	 0	 1	-30	 30;
	 76	 349	 0.0001	 0.01	 0	 83.7	 98.6	 125.55	 0	 0	 1	-30	 30;
	 77	 119	 0.00496	 0.01339	 0.00138	 77	 77	 77	 0	 0	 1	-30	 30;
	 77	 148	 0.03628	 0.09421	 0.00974	 77	 77	 77	 0	 0	 1	-30	 30;
	 78	 121	 0.02397	 0.08322	 0.00799	 120	 120	 120	 0	 0	 1	-30	 30;
	 78	 126	 0.00901	 0.03107	 0.00298	 120	 120	 120	 0	 0	 1	-30	 30;
	 79	 120	 0.04843	 0.08438	 0.00809	 58	 58	 58	 0	 0	 1	-30	 30;
	 79	 131	 0.0376	 0.06554	 0.00624	 58	 58	 58	 0	 0	 1	-30	 30;
	 80	 85	 0.01777	 0.05736	 0.00587	 120	 120	 120	 0	 0	 1	-30	 30;
	 80	 93	 0.02058	 0.06612	 0.00686	 120	 120	 120	 0	 0	 1	-30	 30;
	 81	 124	 0.00355	 0.01157	 0.00119	 120	 120	 120	 0	 0	 1	-30	 30;
	 82	 109	 0.0295	 0.05182	 0.00488	 120	 120	 120	 0	 0	 1	-30	 30;
	 83	 102	 0.02033	 0.06562	 0.00671	 90	 90	 90	 0	 0	 1	-30	 30;
	 84	 127	 0.04066	 0.11116	 0.01147	 103	 103	 103	 0	 0	 1	-30	 30;
	 84	 140	 0.02777	 0.07769	 0.00801	 103	 103	 103	 0	 0	 1	-30	 30;
	 85	 125	 0.02099	 0.06785	 0.00694	 120	 120	 120	 0	 0	 1	-30	 30;
	 86	 120	 0.01917	 0.06198	 0.00634	 90	 90	 90	 0	 0	 1	-30	 30;
	 87	 92	 0.00025	 0.00066	 0	 137	 137	 137	 0	 0	 1	-30	 30;
	 88	 90	 0.00144	 0.00464	 0.00047	 120	 120	 120	 0	 0	 1	-30	 30;
	 88	 94	 0.00184	 0.00597	 0.00061	 120	 120	 120	 0	 0	 1	-30	 30;
	 89	 94	 0.0076	 0.02455	 0.00252	 120	 120	 120	 0	 0	 1	-30	 30;
	 89	 180	 0.0001	 0.01	 0	 83.7	 98.6	 125.55	 0	 0	 1	-30	 30;
	 90	 94	 0.0023	 0.00744	 0.00076	 120	 120	 120	 0	 0	 1	-30	 30;
	 91	 136	 0.03992	 0.06793	 0.00543	 79	 79	 79	 0	 0	 1	-30	 30;
	 92	 93	 8e-05	 0.00083	 0	 438	 438	 438	 0	 0	 1	-30	 30;
	 92	 142	 0.03471	 0.11256	 0.01158	 120	 120	 120	 0	 0	 1	-30	 30;
	 93	 95	 0.01372	 0.04446	 0.00454	 120	 120	 120	 0	 0	 1	-30	 30;
	 94	 110	 0.05736	 0.10083	 0.00949	 79	 79	 79	 0	 0	 1	-30	 30;
	 94	 145	 0.02446	 0.04322	 0.00405	 79	 79	 79	 0	 0	 1	-30	 30;
	 95	 117	 0.01851	 0.06	 0.00614	 120	 120	 120	 0	 0	 1	-30	 30;
	 96	 176	 0.0001	 0.01	 0	 83.7	 98.6	 125.55	 0	 0	 1	-30	 30;
	 97	 98	 0.00124	 0.00397	 0.00044	 90	 90	 90	 0	 0	 1	-30	 30;
	 97	 105	 0.00314	 0.01025	 0.00105	 90	 90	 90	 0	 0	 1	-30	 30;
	 98	 108	 0.00107	 0.00802	 0.00018	 90	 90	 90	 0	 0	 1	-30	 30;
	 99	 102	 0.01083	 0.01917	 0.0018	 90	 90	 90	 0	 0	 1	-30	 30;
	 99	 108	 0.00455	 0.00802	 0.00075	 90	 90	 90	 0	 0	 1	-30	 30;
	 100	 102	 0.01339	 0.02686	 0.00257	 58	 58	 58	 0	 0	 1	-30	 30;
	 100	 103	 0.00959	 0.03116	 0.00318	 131	 131	 131	 0	 0	 1	-30	 30;
	 100	 179	 0.0001	 0.01	 0	 83.7	 98.6	 125.55	 0	 0	 1	-30	 30;
	 101	 112	 0.03132	 0.1014	 0.01038	 120	 120	 120	 0	 0	 1	-30	 30;
	 101	 148	 0.04719	 0.08521	 0.00803	 79	 79	 79	 0	 0	 1	-30	 30;
	 102	 103	 8e-05	 0.00083	 0	 438	 438	 438	 0	 0	 1	-30	 30;
	 102	 106	 0.0038	 0.0286	 0.00273	 183	 183	 183	 0	 0	 1	-30	 30;
	 102	 115	 0.06372	 0.20612	 0.02108	 90	 90	 90	 0	 0	 1	-30	 30;
	 102	 133	 0.01372	 0.05686	 0.00567	 90	 90	 90	 0	 0	 1	-30	 30;
	 103	 105	 0.00231	 0.02413	 0.00373	 148	 148	 148	 0	 0	 1	-30	 30;
	 104	 107	 0.00446	 0.00793	 0.00075	 58	 58	 58	 0	 0	 1	-30	 30;
	 105	 106	 8e-05	 0.00083	 0	 438	 438	 438	 0	 0	 1	-30	 30;
	 109	 142	 0.01512	 0.05132	 0.00251	 120	 120	 120	 0	 0	 1	-30	 30;
	 111	 136	 0.02488	 0.07223	 0.00824	 120	 120	 120	 0	 0	 1	-30	 30;
	 112	 137	 0.06909	 0.1238	 0.01008	 79	 79	 79	 0	 0	 1	-30	 30;
	 112	 303	 0.0001	 0.01	 0	 83.7	 98.6	 125.55	 0	 0	 1	-30	 30;
	 113	 114	 0.00033	 0.00058	 0.0242	 274	 274	 274	 0	 0	 1	-30	 30;
	 115	 144	 0.03793	 0.12298	 0.01258	 90	 90	 90	 0	 0	 1	-30	 30;
	 116	 140	 0.004	 0.01038	 0.00107	 103	 103	 103	 0	 0	 1	-30	 30;
	 117	 118	 0.01934	 0.06264	 0.00641	 120	 120	 120	 0	 0	 1	-30	 30;
	 118	 128	 0.02702	 0.0876	 0.009	 120	 120	 120	 0	 0	 1	-30	 30;
	 119	 120	 0.00372	 0.00884	 0.00067	 77	 77	 77	 0	 0	 1	-30	 30;
	 121	 124	 0.02322	 0.07521	 0.0077	 120	 120	 120	 0	 0	 1	-30	 30;
	 122	 123	 0.00777	 0.01686	 0.00165	 79	 79	 79	 0	 0	 1	-30	 30;
	 122	 132	 0.00355	 0.00628	 0.00542	 79	 79	 79	 0	 0	 1	-30	 30;
	 123	 126	 0.02289	 0.0519	 0.00506	 79	 79	 79	 0	 0	 1	-30	 30;
	 123	 130	 0.02521	 0.05744	 0.00561	 79	 79	 79	 0	 0	 1	-30	 30;
	 125	 130	 0.00579	 0.00992	 0.00105	 120	 120	 120	 0	 0	 1	-30	 30;
	 126	 127	 8e-05	 0.00083	 0	 438	 438	 438	 0	 0	 1	-30	 30;
	 126	 136	 0.05331	 0.13339	 0.01064	 103	 103	 103	 0	 0	 1	-30	 30;
	 126	 143	 0.0124	 0.03603	 0	 137	 137	 137	 0	 0	 1	-30	 30;
	 126	 148	 0.0519	 0.1314	 0.01312	 103	 103	 103	 0	 0	 1	-30	 30;
	 127	 129	 0.01521	 0.02562	 0.00245	 79	 79	 79	 0	 0	 1	-30	 30;
	 127	 132	 0.01686	 0.02983	 0.00281	 79	 79	 79	 0	 0	 1	-30	 30;
	 127	 134	 0.03826	 0.06752	 0.00633	 79	 79	 79	 0	 0	 1	-30	 30;
	 128	 129	 0.00851	 0.01438	 0.00155	 79	 79	 79	 0	 0	 1	-30	 30;
	 134	 146	 0.00884	 0.01488	 0.0015	 79	 79	 79	 0	 0	 1	-30	 30;
	 135	 146	 0.00041	 0.0119	 0.00122	 120	 120	 120	 0	 0	 1	-30	 30;
	 136	 137	 8e-05	 0.00083	 0	 438	 438	 438	 0	 0	 1	-30	 30;
	 136	 138	 0.00058	 0.00165	 0	 137	 137	 137	 0	 0	 1	-30	 30;
	 136	 139	 0.00331	 0.00992	 0	 137	 137	 137	 0	 0	 1	-30	 30;
	 136	 147	 0.01818	 0.05463	 0	 137	 137	 137	 0	 0	 1	-30	 30;
	 137	 140	 0.00289	 0.00777	 0.0008	 103	 103	 103	 0	 0	 1	-30	 30;
	 141	 145	 0.03124	 0.05512	 0.00516	 79	 79	 79	 0	 0	 1	-30	 30;
	 152	 153	 2e-05	 0.00021	 0	 876	 876	 876	 0	 0	 1	-30	 30;
	 153	 154	 0.00064	 0.0305	 0	 400	 400	 400	 1.09271	 0	 1	-30	 30;
	 153	 157	 0.01469	 0.10915	 0.16676	 317	 317	 317	 0	 0	 1	-30	 30;
	 154	 155	 0.0011	 0.01271	 0.35206	 838	 838	 838	 0	 0	 1	-30	 30;
	 154	 156	 0.00286	 0.03355	 0.90157	 838	 838	 838	 0	 0	 1	-30	 30;
	 155	 164	 0.00342	 0.03928	 1.0829	 1154	 1154	 1154	 0	 0	 1	-30	 30;
	 156	 166	 0.00023	 0.00264	 0.07296	 838	 838	 838	 0	 0	 1	-30	 30;
	 157	 261	 0.0001	 0.01	 0	 222.3	 266.76	 333.45	 0	 0	 1	-30	 30;
	 158	 159	 2e-05	 0.00021	 0	 876	 876	 876	 0	 0	 1	-30	 30;
	 160	 161	 1e-05	 6e-05	 0	 1593	 1593	 1593	 0	 0	 1	-30	 30;
	 160	 163	 0.00358	 0.04122	 1.1338	 1154	 1154	 1154	 0	 0	 1	-30	 30;
	 160	 171	 0.00217	 0.02513	 0.67098	 1154	 1154	 1154	 0	 0	 1	-30	 30;
...
];

mpc_regionR1.gencost = [
%	2           startup     shutdown    n           c(n-1)...c0 
	 2	 0	 0	 3	 0	 29.643795	 0;
	 2	 0	 0	 3	 0	 15.778189	 0;
	 2	 0	 0	 3	 0	 29.934834	 0;
	 2	 0	 0	 3	 0	 42.955993	 0;
	 2	 0	 0	 3	 0	 28.429944	 0;
	 2	 0	 0	 3	 0	 24.541088	 0;
	 2	 0	 0	 3	 0	 31.151164	 0;
	 2	 0	 0	 3	 0	 32.533861	 0;
	 2	 0	 0	 3	 0	 20.9929	 0;
	 2	 0	 0	 3	 0	 34.019176	 0;
	 2	 0	 0	 3	 0	 21.595456	 0;
	 2	 0	 0	 3	 0	 30.53651	 0;
	 2	 0	 0	 3	 0	 30.978552	 0;
	 2	 0	 0	 3	 0	 60.309374	 0;
	 2	 0	 0	 3	 0	 50.127172	 0;
	 2	 0	 0	 3	 0	 23.804996	 0;
	 2	 0	 0	 3	 0	 103.888135	 0;
	 2	 0	 0	 3	 0	 16.414005	 0;
	 2	 0	 0	 3	 0	 44.338124	 0;
	 2	 0	 0	 3	 0	 38.483821	 0;
	 2	 0	 0	 3	 0	 10.697315	 0;
	 2	 0	 0	 3	 0	 32.053849	 0;
	 2	 0	 0	 3	 0	 29.25283	 0;
	 2	 0	 0	 3	 0	 11.180959	 0;
	 2	 0	 0	 3	 0	 41.375782	 0;
	 2	 0	 0	 3	 0	 114.778673	 0;
	 2	 0	 0	 3	 0	 29.540266	 0;
	 2	 0	 0	 3	 0	 118.968338	 0;
	 2	 0	 0	 3	 0	 28.786295	 0;
	 2	 0	 0	 3	 0	 27.229507	 0;
	 2	 0	 0	 3	 0	 32.93079	 0;
	 2	 0	 0	 3	 0	 35.076258	 0;
	 2	 0	 0	 3	 0	 33.293265	 0;
	 2	 0	 0	 3	 0	 29.624401	 0;
	 2	 0	 0	 3	 0	 7.130874	 0;
	 2	 0	 0	 3	 0	 20.708952	 0;
	 2	 0	 0	 3	 0	 21.372045	 0;
	 2	 0	 0	 3	 0	 29.118341	 0;
	 2	 0	 0	 3	 0	 45.032544	 0;
	 2	 0	 0	 3	 0	 39.901683	 0;
	 2	 0	 0	 3	 0	 41.104554	 0;
	 2	 0	 0	 3	 0	 42.953925	 0;
	 2	 0	 0	 3	 0	 26.620211	 0;
	 2	 0	 0	 3	 0	 30.831933	 0;
	 2	 0	 0	 3	 0	 49.487156	 0;
	 2	 0	 0	 3	 0	 15.292639	 0;
	 2	 0	 0	 3	 0	 17.912322	 0;
	 2	 0	 0	 3	 0	 53.719557	 0;
	 2	 0	 0	 3	 0	 28.575508	 0;
	 2	 0	 0	 3	 0	 43.592096	 0;
	 2	 0	 0	 3	 0	 38.031712	 0;
	 2	 0	 0	 3	 0	 39.270854	 0;
	 2	 0	 0	 3	 0	 29.088015	 0;
	 2	 0	 0	 3	 0	 23.307005	 0;
	 2	 0	 0	 3	 0	 48.869305	 0;
	 2	 0	 0	 3	 0	 27.657778	 0;
	 2	 0	 0	 3	 0	 42.259779	 0;
	 2	 0	 0	 3	 0	 19.11298	 0;
	 2	 0	 0	 3	 0	 28.472143	 0;
	 2	 0	 0	 3	 0	 15.640641	 0;
	 2	 0	 0	 3	 0	 27.732268	 0;
	 2	 0	 0	 3	 0	 45.136693	 0;
	 2	 0	 0	 3	 0	 22.722548	 0;
	 2	 0	 0	 3	 0	 22.449619	 0;
	 2	 0	 0	 3	 0	 32.1865	 0;
	 2	 0	 0	 3	 0	 22.666507	 0;
	 2	 0	 0	 3	 0	 12.045064	 0;
	 2	 0	 0	 3	 0	 34.58724	 0;
	 2	 0	 0	 3	 0	 25.502863	 0;
	 2	 0	 0	 3	 0	 9.00107	 0;
	 2	 0	 0	 3	 0	 19.141267	 0;
	 2	 0	 0	 3	 0	 31.044097	 0;
	 2	 0	 0	 3	 0	 32.901453	 0;
	 2	 0	 0	 3	 0	 27.991061	 0;
	 2	 0	 0	 3	 0	 33.825097	 0;
	 2	 0	 0	 3	 0	 35.894023	 0;
	 2	 0	 0	 3	 0	 0.114686	 0;
	 2	 0	 0	 3	 0	 46.973101	 0;
	 2	 0	 0	 3	 0	 17.065789	 0;
	 2	 0	 0	 3	 0	 28.228838	 0;
	 2	 0	 0	 3	 0	 33.620603	 0;
	 2	 0	 0	 3	 0	 31.461986	 0;
	 2	 0	 0	 3	 0	 120.790588	 0;
	 2	 0	 0	 3	 0	 19.384802	 0;
	 2	 0	 0	 3	 0	 43.610204	 0;
	 2	 0	 0	 3	 0	 3.854488	 0;
	 2	 0	 0	 3	 0	 42.546697	 0;
	 2	 0	 0	 3	 0	 43.238472	 0;
	 2	 0	 0	 3	 0	 31.00887	 0;
	 2	 0	 0	 3	 0	 27.567391	 0;
	 2	 0	 0	 3	 0	 111.663196	 0;
	 2	 0	 0	 3	 0	 21.524971	 0;
	 2	 0	 0	 3	 0	 33.391097	 0;
	 2	 0	 0	 3	 0	 36.099068	 0;
	 2	 0	 0	 3	 0	 41.373095	 0;
	 2	 0	 0	 3	 0	 112.931469	 0;
	 2	 0	 0	 3	 0	 37.113909	 0;
	 2	 0	 0	 3	 0	 120.88597	 0;
	 2	 0	 0	 3	 0	 49.878504	 0;
	 2	 0	 0	 3	 0	 111.199869	 0;
	 2	 0	 0	 3	 0	 18.144957	 0;
	 2	 0	 0	 3	 0	 118.558869	 0;
	 2	 0	 0	 3	 0	 26.895688	 0;
	 2	 0	 0	 3	 0	 15.043928	 0;
	 2	 0	 0	 3	 0	 41.229971	 0;
	 2	 0	 0	 3	 0	 20.265517	 0;
];


% -------------------- mpc_regionR2 --------------------

mpc_regionR2.version = '2';
mpc_regionR2.baseMVA = 100.0000;
mpc_regionR2.bus = [
%	bus_i       type        Pd          Qd          Gs          Bs          area        Vm          Va          baseKV      zone        Vmax        Vmin        
	 1	 1	 0	 0	 0	 0	 2	 1	 0	 500	 2	 1.1	 0.9;
	 2	 2	 0	 0	 0	 0	 2	 1	 0	 500	 2	 1.1	 0.9;
	 3	 2	 0	 0	 0	 0	 2	 1	 0	 500	 2	 1.1	 0.9;
	 4	 2	 0	 0	 0	 0	 2	 1	 0	 500	 2	 1.1	 0.9;
	 5	 1	 122.12	-142.76	 0	 0	 2	 1	 0	 500	 2	 1.1	 0.9;
	 6	 1	 0	 0	 0	 0	 2	 1	 0	 500	 2	 1.1	 0.9;
	 7	 2	 0	 0	 0	 0	 2	 1	 0	 500	 2	 1.1	 0.9;
	 8	 2	 0	 0	 0	 0	 2	 1	 0	 500	 2	 1.1	 0.9;
	 9	 2	 0	 0	 0	 0	 2	 1	 0	 500	 2	 1.1	 0.9;
	 10	 2	 0	 0	 0	 0	 2	 1	 0	 500	 2	 1.1	 0.9;
	 11	 1	 4.5	 3.37	 0	 0	 2	 1	 0	 500	 2	 1.1	 0.9;
	 12	 2	 0	 0	 0	 0	 2	 1	 0	 500	 2	 1.1	 0.9;
	 13	 2	 0	 0	 0	 0	 2	 1	 0	 500	 2	 1.1	 0.9;
	 14	 1	 0	 0	 0	 0	 2	 1	 0	 500	 2	 1.1	 0.9;
	 15	 2	 0	 0	 0	 0	 2	 1	 0	 500	 2	 1.1	 0.9;
	 16	 2	 0	 0	 0	 0	 2	 1	 0	 500	 2	 1.1	 0.9;
	 17	 2	 0	 0	 0	 0	 2	 1	 0	 500	 2	 1.1	 0.9;
	 18	 2	 0	 0	 0	 0	 2	 1	 0	 500	 2	 1.1	 0.9;
	 19	 1	 0	 0	 0	 0	 2	 1	 0	 500	 2	 1.1	 0.9;
	 20	 2	 0	 0	 0	 0	 2	 1	 0	 500	 2	 1.1	 0.9;
	 21	 2	 0	 0	 0	 0	 2	 1	 0	 500	 2	 1.1	 0.9;
	 22	 2	 0	 0	 0	 0	 2	 1	 0	 500	 2	 1.1	 0.9;
	 23	 1	 0	 0	 0	 0	 2	 1	 0	 500	 2	 1.1	 0.9;
	 24	 2	 0	 0	 0	 0	 2	 1	 0	 500	 2	 1.1	 0.9;
	 25	 2	 0	 0	 0	 0	 2	 1	 0	 500	 2	 1.1	 0.9;
	 26	 2	 0	 0	 0	 0	 2	 1	 0	 500	 2	 1.1	 0.9;
	 27	 1	 0	 0	 0	 0	 2	 1	 0	 500	 2	 1.1	 0.9;
	 28	 1	 26.44	 39	 0	 0	 2	 1	 0	 500	 2	 1.1	 0.9;
	 29	 2	 0	 0	 0	 0	 2	 1	 0	 500	 2	 1.1	 0.9;
	 30	 2	 0	 0	 0	 0	 2	 1	 0	 500	 2	 1.1	 0.9;
	 31	 1	 0	 0	 0	 0	 2	 1	 0	 500	 2	 1.1	 0.9;
	 32	 1	 0	 0	 0	 0	 2	 1	 0	 500	 2	 1.1	 0.9;
	 33	 1	 0	 0	 0	 0	 2	 1	 0	 500	 2	 1.1	 0.9;
	 34	 1	 0	 0	 0	 12	 2	 1	 0	 500	 2	 1.1	 0.9;
	 35	 2	 0	 0	 0	 0	 2	 1	 0	 500	 2	 1.1	 0.9;
	 36	 2	 0	 0	 0	 20.34	 2	 1	 0	 500	 2	 1.1	 0.9;
	 37	 2	 0	 0	 0	 0	 2	 1	 0	 500	 2	 1.1	 0.9;
	 38	 2	 0	 0	 0	 0	 2	 1	 0	 500	 2	 1.1	 0.9;
	 39	 1	 1094.16	-110.77	 0	 2.62	 2	 1	 0	 500	 2	 1.1	 0.9;
	 40	 1	 0	 0	 0	 0	 2	 1	 0	 500	 2	 1.1	 0.9;
	 41	 1	 0	 0	 0	 0	 2	 1	 0	 500	 2	 1.1	 0.9;
	 42	 1	 0	 0	 0	 0	 2	 1	 0	 500	 2	 1.1	 0.9;
	 43	 2	 0	 0	 0	 0	 2	 1	 0	 500	 2	 1.1	 0.9;
	 44	 1	 12.66	 0	 0	-111.27	 2	 1	 0	 500	 2	 1.1	 0.9;
	 45	 1	 476.02	-4.36	 0	 0	 2	 1	 0	 500	 2	 1.1	 0.9;
	 46	 1	 725.74	-39.99	 0	 0	 2	 1	 0	 500	 2	 1.1	 0.9;
	 47	 1	 0	 0	 0	 0	 2	 1	 0	 500	 2	 1.1	 0.9;
	 48	 1	 0	 0	 0	-62.9	 2	 1	 0	 500	 2	 1.1	 0.9;
	 49	 1	 471.28	-155.26	 0	 0	 2	 1	 0	 500	 2	 1.1	 0.9;
	 50	 1	 0	 0	 0	 0	 2	 1	 0	 500	 2	 1.1	 0.9;
	 51	 1	 0	 0	 0	 0	 2	 1	 0	 500	 2	 1.1	 0.9;
	 52	 2	 0	 0	 0	 170.09	 2	 1	 0	 500	 2	 1.1	 0.9;
	 53	 1	 0	 0	 0	 0	 2	 1	 0	 500	 2	 1.1	 0.9;
	 54	 1	 0	 0	 0	 0	 2	 1	 0	 500	 2	 1.1	 0.9;
	 55	 1	 331.47	 62.74	 0	 28.59	 2	 1	 0	 345	 2	 1.1	 0.9;
	 56	 1	 0	 0	 0	-0.98	 2	 1	 0	 345	 2	 1.1	 0.9;
	 57	 1	 0	 0	 0	 0	 2	 1	 0	 345	 2	 1.1	 0.9;
	 58	 1	 0	 0	 0	-0.34	 2	 1	 0	 345	 2	 1.1	 0.9;
	 59	 2	 464.37	 123.64	 0	-0.23	 2	 1	 0	 138	 2	 1.1	 0.9;
	 60	 2	 504.38	 158.05	 0	 104.88	 2	 1	 0	 138	 2	 1.1	 0.9;
	 61	 2	 471.95	 147.39	 0	 99.73	 2	 1	 0	 138	 2	 1.1	 0.9;
	 62	 1	 838.87	 74.95	 0	 214.84	 2	 1	 0	 138	 2	 1.1	 0.9;
	 63	 1	 228.81	 90.32	 0	 28.75	 2	 1	 0	 138	 2	 1.1	 0.9;
	 64	 1	 203.94	 104.43	 0	 28.59	 2	 1	 0	 138	 2	 1.1	 0.9;
	 65	 1	 125.32	 40.73	 0	 14.21	 2	 1	 0	 138	 2	 1.1	 0.9;
	 66	 1	 125.32	 40.73	 0	 14.21	 2	 1	 0	 138	 2	 1.1	 0.9;
	 67	 1	 131.07	 67.13	 0	 26.74	 2	 1	 0	 138	 2	 1.1	 0.9;
	 68	 1	 131.07	 67.15	 0	 27.33	 2	 1	 0	 138	 2	 1.1	 0.9;
	 69	 1	 170.97	 87.5	 0	 34.18	 2	 1	 0	 138	 2	 1.1	 0.9;
	 70	 1	 146.99	 76.47	 0	 54.85	 2	 1	 0	 138	 2	 1.1	 0.9;
	 71	 1	 309.47	 101.63	 0	 65.2	 2	 1	 0	 138	 2	 1.1	 0.9;
	 72	 1	 309.47	 101.65	 0	 64.85	 2	 1	 0	 138	 2	 1.1	 0.9;
	 73	 1	 292.53	 75.56	 0	-0.26	 2	 1	 0	 138	 2	 1.1	 0.9;
	 74	 1	 250.64	 81.17	 0	 34.17	 2	 1	 0	 138	 2	 1.1	 0.9;
	 75	 1	 15.74	 13.49	 0	-0.26	 2	 1	 0	 138	 2	 1.1	 0.9;
	 76	 1	 15.74	 13.49	 0	-0.56	 2	 1	 0	 138	 2	 1.1	 0.9;
	 77	 2	 0	 0	 0	 0	 2	 1	 0	 500	 2	 1.1	 0.9;
	 78	 2	 0	 0	 0	 0	 2	 1	 0	 500	 2	 1.1	 0.9;
	 79	 1	 292.53	 76.1	 0	 4.85	 2	 1	 0	 138	 2	 1.1	 0.9;
	 80	 1	 0	 0	 0	-0.79	 2	 1	 0	 138	 2	 1.1	 0.9;
	 81	 1	 292.53	 76.1	 0	 34.39	 2	 1	 0	 138	 2	 1.1	 0.9;
	 82	 1	 222.15	 66.27	 0	 5.34	 2	 1	 0	 138	 2	 1.1	 0.9;
	 83	 1	 146.99	 76.47	 0	 45.15	 2	 1	 0	 138	 2	 1.1	 0.9;
	 84	 1	 0	 0	 0	 0.75	 2	 1	 0	 138	 2	 1.1	 0.9;
	 85	 1	 0	 0	 0	 1.01	 2	 1	 0	 138	 2	 1.1	 0.9;
	 86	 1	 734.12	 134.23	 0	 184.29	 2	 1	 0	 138	 2	 1.1	 0.9;
	 87	 1	 0	 0	 0	 0.1	 2	 1	 0	 138	 2	 1.1	 0.9;
	 88	 1	 0	 0	 0	 0	 2	 1	 0	 138	 2	 1.1	 0.9;
	 89	 2	 0	 0	 0	 0	 2	 1	 0	 138	 2	 1.1	 0.9;
	 90	 2	 0	 0	 0	 0	 2	 1	 0	 138	 2	 1.1	 0.9;
	 91	 2	 0	 0	 0	 0	 2	 1	 0	 138	 2	 1.1	 0.9;
	 92	 1	 0	 0	 0	 0	 2	 1	 0	 138	 2	 1.1	 0.9;
	 93	 2	 0	 0	 0	 0	 2	 1	 0	 138	 2	 1.1	 0.9;
	 94	 1	 0	 0	 0	 2.12	 2	 1	 0	 138	 2	 1.1	 0.9;
	 95	 1	 0	 0	 0	 0	 2	 1	 0	 138	 2	 1.1	 0.9;
	 96	 1	 0	 0	 0	 0	 2	 1	 0	 138	 2	 1.1	 0.9;
	 97	 1	 0	 0	 0	 0	 2	 1	 0	 138	 2	 1.1	 0.9;
	 98	 1	 0	 0	 0	 0	 2	 1	 0	 138	 2	 1.1	 0.9;
	 99	 1	 0	 0	 0	 0	 2	 1	 0	 138	 2	 1.1	 0.9;
	 100	 1	 0	 0	 0	 0	 2	 1	 0	 138	 2	 1.1	 0.9;
	 101	 1	 0	 0	 0	 0	 2	 1	 0	 138	 2	 1.1	 0.9;
	 102	 1	 0	 0	 0	 0	 2	 1	 0	 138	 2	 1.1	 0.9;
	 103	 1	 0	 0	 0	 0	 2	 1	 0	 138	 2	 1.1	 0.9;
	 104	 1	 0	 0	 0	 0	 2	 1	 0	 33	 2	 1.1	 0.9;
	 105	 1	 0	 0	 0	 0	 2	 1	 0	 138	 2	 1.1	 0.9;
	 106	 1	 0	 0	 0	 0	 2	 1	 0	 138	 2	 1.1	 0.9;
	 107	 1	 0	 0	 0	 0	 2	 1	 0	 138	 2	 1.1	 0.9;
	 108	 1	 0	 0	 0	 0	 2	 1	 0	 138	 2	 1.1	 0.9;
	 109	 1	 0	 0	 0	 0	 2	 1	 0	 138	 2	 1.1	 0.9;
	 110	 1	 0	 0	 0	-0.11	 2	 1	 0	 138	 2	 1.1	 0.9;
	 111	 1	 0	 0	 0	 0	 2	 1	 0	 138	 2	 1.1	 0.9;
	 112	 1	 0	 0	 0	-0.11	 2	 1	 0	 138	 2	 1.1	 0.9;
	 113	 1	 0	 0	 0	-0.6	 2	 1	 0	 138	 2	 1.1	 0.9;
	 114	 1	 0	 0	 0	 0	 2	 1	 0	 138	 2	 1.1	 0.9;
	 115	 1	 0	 0	 0	-0.14	 2	 1	 0	 138	 2	 1.1	 0.9;
	 116	 1	 0	 0	 0	 0	 2	 1	 0	 138	 2	 1.1	 0.9;
	 117	 1	 0	 0	 0	 0	 2	 1	 0	 138	 2	 1.1	 0.9;
	 118	 1	 0	 0	 0	-0.3	 2	 1	 0	 138	 2	 1.1	 0.9;
	 119	 1	 0	 0	 0	-0.12	 2	 1	 0	 138	 2	 1.1	 0.9;
	 120	 1	 0	 0	 0	-0.3	 2	 1	 0	 138	 2	 1.1	 0.9;
	 121	 1	 0	 0	 0	-0.13	 2	 1	 0	 138	 2	 1.1	 0.9;
	 122	 1	 0	 0	 0	 0	 2	 1	 0	 138	 2	 1.1	 0.9;
	 123	 1	 0	 0	 0	 0	 2	 1	 0	 138	 2	 1.1	 0.9;
	 124	 1	 0	 0	 0	 0	 2	 1	 0	 138	 2	 1.1	 0.9;
	 125	 1	 0	 0	 0	 1.03	 2	 1	 0	 33	 2	 1.1	 0.9;
	 126	 1	 0	 0	 0	 0	 2	 1	 0	 11	 2	 1.1	 0.9;
	 127	 1	 0	 0	 0	 0	 2	 1	 0	 11	 2	 1.1	 0.9;
	 128	 1	 0	 0	 0	 3.14	 2	 1	 0	 33	 2	 1.1	 0.9;
	 129	 1	 0	 0	 0	 0	 2	 1	 0	 33	 2	 1.1	 0.9;
	 130	 1	 0	 0	 0	 1.13	 2	 1	 0	 33	 2	 1.1	 0.9;
	 131	 1	 0	 0	 0	 2.26	 2	 1	 0	 33	 2	 1.1	 0.9;
	 132	 1	 0	 0	 0	 1.06	 2	 1	 0	 33	 2	 1.1	 0.9;
	 133	 1	 0	 0	 0	 0	 2	 1	 0	 33	 2	 1.1	 0.9;
	 134	 1	 0	 0	 0	 0	 2	 1	 0	 33	 2	 1.1	 0.9;
	 135	 1	 0	 0	 0	 0	 2	 1	 0	 11	 2	 1.1	 0.9;
	 136	 1	 0	 0	 0	 0	 2	 1	 0	 11	 2	 1.1	 0.9;
	 137	 1	 0	 0	 0	 0	 2	 1	 0	 138	 2	 1.1	 0.9;
	 138	 2	 0	 0	 0	 0	 2	 1	 0	 138	 2	 1.1	 0.9;
	 139	 1	 0	 0	 0	 0	 2	 1	 0	 138	 2	 1.1	 0.9;
	 140	 1	 0	 0	 0	 0	 2	 1	 0	 138	 2	 1.1	 0.9;
	 141	 1	 0	 0	 0	-0.32	 2	 1	 0	 138	 2	 1.1	 0.9;
	 142	 1	 0	 0	 0	-103.67	 10	 1	 0	 500	 10	 1.1	 0.9;
	 143	 1	 148.99	 30.2	 0	-0.62	 10	 1	 0	 138	 10	 1.1	 0.9;
	 144	 1	 148.99	 30.2	 0	-0.32	 10	 1	 0	 138	 10	 1.1	 0.9;
	 145	 1	 0	 0	 0	 1.2	 10	 1	 0	 138	 10	 1.1	 0.9;
	 146	 1	 10.95	 2.9	 0	 0	 12	 1	 0	 138	 12	 1.1	 0.9;
	 147	 1	 0	 0	 0	 11.77	 12	 1	 0	 138	 12	 1.1	 0.9;
	 148	 1	 11.55	 3.82	 0	-2.65	 12	 1	 0	 138	 12	 1.1	 0.9;
	 149	 1	 8.84	 2.91	 0	 0	 12	 1	 0	 138	 12	 1.1	 0.9;
	 150	 1	 3.01	 0.5	 0	 0	 12	 1	 0	 138	 12	 1.1	 0.9;
	 151	 1	 6.73	 2.61	 0	 0	 12	 1	 0	 138	 12	 1.1	 0.9;
	 152	 1	 1.05	-53.7	 0	-0.33	 15	 1	 0	 500	 15	 1.1	 0.9;
	 153	 2	 0	 0	 0	 0	 15	 1	 0	 500	 15	 1.1	 0.9;
	 154	 2	 0	 0	 0	 0	 15	 1	 0	 500	 15	 1.1	 0.9;
	 155	 2	 0	 0	 0	 0	 15	 1	 0	 500	 15	 1.1	 0.9;
	 156	 1	 0	 0	 0	 0.02	 15	 1	 0	 500	 15	 1.1	 0.9;
	 157	 2	 0	 0	 0	 0	 15	 1	 0	 500	 15	 1.1	 0.9;
	 158	 2	 0	 0	 0	 0	 15	 1	 0	 500	 15	 1.1	 0.9;
	 159	 2	 0	 0	 0	 0	 15	 1	 0	 500	 15	 1.1	 0.9;
	 160	 1	 103.65	 31.97	 0	 0	 15	 1	 0	 345	 15	 1.1	 0.9;
	 161	 2	 0	 0	 0	 0	 15	 1	 0	 345	 15	 1.1	 0.9;
	 162	 2	 0	 0	 0	 0	 15	 1	 0	 345	 15	 1.1	 0.9;
	 163	 1	 0	 0	 0	-0.53	 15	 1	 0	 345	 15	 1.1	 0.9;
	 164	 2	 0	 0	 0	 0	 15	 1	 0	 345	 15	 1.1	 0.9;
	 165	 2	 0	 0	 0	 0	 15	 1	 0	 345	 15	 1.1	 0.9;
	 166	 2	 0	 0	 0	 0	 15	 1	 0	 345	 15	 1.1	 0.9;
	 167	 2	 0	 0	 0	 0	 15	 1	 0	 345	 15	 1.1	 0.9;
	 168	 1	 0	 0	 0	-0.8	 15	 1	 0	 345	 15	 1.1	 0.9;
	 169	 2	 0	 0	 0	 0	 15	 1	 0	 345	 15	 1.1	 0.9;
	 170	 2	 0	 0	 0	 0	 15	 1	 0	 345	 15	 1.1	 0.9;
	 171	 2	 0	 0	 0	 0	 15	 1	 0	 345	 15	 1.1	 0.9;
	 172	 2	 0	 0	 0	 0	 15	 1	 0	 345	 15	 1.1	 0.9;
	 173	 2	 0	 0	 0	 0	 15	 1	 0	 345	 15	 1.1	 0.9;
	 174	 2	 0	 0	 0	 0	 15	 1	 0	 345	 15	 1.1	 0.9;
	 175	 2	 0	 0	 0	 0	 15	 1	 0	 345	 15	 1.1	 0.9;
	 176	 2	 94	 27.45	 0	 0	 15	 1	 0	 345	 15	 1.1	 0.9;
	 177	 1	 892.62	 70.78	 0	 0	 15	 1	 0	 500	 15	 1.1	 0.9;
	 178	 1	 0	 0	 0	 0	 15	 1	 0	 500	 15	 1.1	 0.9;
	 179	 1	 0	 0	 0	 0	 15	 1	 0	 500	 15	 1.1	 0.9;
	 180	 1	 0	 0	 0	 0	 15	 1	 0	 500	 15	 1.1	 0.9;
	 181	 1	 0	 0	 0	 0	 15	 1	 0	 500	 15	 1.1	 0.9;
	 182	 1	 0	 0	 0	 0	 15	 1	 0	 500	 15	 1.1	 0.9;
	 183	 1	 0	 0	 0	 0	 15	 1	 0	 500	 15	 1.1	 0.9;
	 184	 1	 0	 0	 0	 51.74	 15	 1	 0	 500	 15	 1.1	 0.9;
	 185	 1	 0	 0	 0	 0	 15	 1	 0	 500	 15	 1.1	 0.9;
	 186	 1	 0	 0	 0	 0	 15	 1	 0	 500	 15	 1.1	 0.9;
	 187	 2	 0	 0	 0	-48.98	 15	 1	 0	 500	 15	 1.1	 0.9;
	 188	 2	 0	 0	 0	-66.86	 15	 1	 0	 500	 15	 1.1	 0.9;
	 189	 1	 31.04	 15.18	 0	-0.54	 15	 1	 0	 345	 15	 1.1	 0.9;
	 190	 1	 0	 0	 0	-2.04	 15	 1	 0	 345	 15	 1.1	 0.9;
	 191	 1	 0	 0	 0	-2.69	 15	 1	 0	 345	 15	 1.1	 0.9;
	 192	 1	 0	 0	 0	-3.72	 15	 1	 0	 345	 15	 1.1	 0.9;
	 193	 1	 0	 0	 0	-1.18	 15	 1	 0	 345	 15	 1.1	 0.9;
	 194	 2	 0	 0	 0	 80.33	 15	 1	 0	 345	 15	 1.1	 0.9;
	 195	 1	 0	 0	 0	 0	 15	 1	 0	 345	 15	 1.1	 0.9;
	 196	 2	 0	 0	 0	 0	 15	 1	 0	 345	 15	 1.1	 0.9;
	 197	 1	 0	 0	 0	-0.82	 15	 1	 0	 345	 15	 1.1	 0.9;
	 198	 1	 0	 0	 0	-0.83	 15	 1	 0	 345	 15	 1.1	 0.9;
	 199	 1	 0	 0	 0	 0	 15	 1	 0	 345	 15	 1.1	 0.9;
	 200	 1	 0	 0	 0	-0.57	 15	 1	 0	 345	 15	 1.1	 0.9;
...
];

mpc_regionR2.gen = [
%	bus         Pg          Qg          Qmax        Qmin        Vg          mBase       status      Pmax        Pmin        Pc1         Pc2         Qc1min      Qc1max      Qc2min      Qc2max      ramp_agc    ramp_10     ramp_30     ramp_q      apf         
	 2	 183.75	 0	 330.75	-330.75	 1	 100	 1	 367.5	 0	 0	 0	 0	 0	 0	 0	 0	 0	 0	 0	 367.5;
	 3	 692.385	-2.805	 22.43	-28.04	 1	 100	 1	 1108.43	 276.34	 0	 0	 0	 0	 0	 0	 0	 0	 0	 0	 1108.425;
	 4	 135	 0	 194.4	-194.4	 1	 100	 1	 270	 0	 0	 0	 0	 0	 0	 0	 0	 0	 0	 0	 270;
	 7	 142.5	 0	 205.2	-205.2	 1	 100	 1	 285	 0	 0	 0	 0	 0	 0	 0	 0	 0	 0	 0	 285;
	 8	 142.5	 0	 205.2	-205.2	 1	 100	 1	 285	 0	 0	 0	 0	 0	 0	 0	 0	 0	 0	 0	 285;
	 9	 142.5	 0	 205.2	-205.2	 1	 100	 1	 285	 0	 0	 0	 0	 0	 0	 0	 0	 0	 0	 0	 285;
	 10	 194.25	 0	 349.65	-349.65	 1	 100	 1	 388.5	 0	 0	 0	 0	 0	 0	 0	 0	 0	 0	 0	 388.5;
	 12	 216.175	 0	 389.11	-389.11	 1	 100	 1	 432.35	 0	 0	 0	 0	 0	 0	 0	 0	 0	 0	 0	 432.348;
	 13	 216.175	 0	 389.11	-389.11	 1	 100	 1	 432.35	 0	 0	 0	 0	 0	 0	 0	 0	 0	 0	 0	 432.347;
	 15	 202.515	 0	 364.53	-364.53	 1	 100	 1	 405.03	 0	 0	 0	 0	 0	 0	 0	 0	 0	 0	 0	 405.03;
	 16	 202.49	 0	 364.49	-364.49	 1	 100	 1	 404.98	 0	 0	 0	 0	 0	 0	 0	 0	 0	 0	 0	 404.985;
	 17	 202.525	 0	 364.55	-364.55	 1	 100	 1	 405.05	 0	 0	 0	 0	 0	 0	 0	 0	 0	 0	 0	 405.051;
	 18	 202.515	 0	 364.53	-364.53	 1	 100	 1	 405.03	 0	 0	 0	 0	 0	 0	 0	 0	 0	 0	 0	 405.028;
	 20	 200.025	 0	 360.05	-360.05	 1	 100	 1	 400.05	 0	 0	 0	 0	 0	 0	 0	 0	 0	 0	 0	 400.05;
	 21	 200.025	 0	 360.05	-360.05	 1	 100	 1	 400.05	 0	 0	 0	 0	 0	 0	 0	 0	 0	 0	 0	 400.05;
	 22	 199.95	 0	 359.91	-359.91	 1	 100	 1	 399.9	 0	 0	 0	 0	 0	 0	 0	 0	 0	 0	 0	 399.9;
	 24	 192.75	 0	 346.95	-346.95	 1	 100	 1	 385.5	 0	 0	 0	 0	 0	 0	 0	 0	 0	 0	 0	 385.5;
	 25	 192.75	 0	 346.95	-346.95	 1	 100	 1	 385.5	 0	 0	 0	 0	 0	 0	 0	 0	 0	 0	 0	 385.5;
	 26	 204.425	 0	 367.96	-367.96	 1	 100	 1	 408.85	 0	 0	 0	 0	 0	 0	 0	 0	 0	 0	 0	 408.848;
	 29	 667.61	 0	 95	-95	 1	 100	 1	 776.82	 558.4	 0	 0	 0	 0	 0	 0	 0	 0	 0	 0	 776.819;
	 30	 726.57	 0	 237.47	-237.47	 1	 100	 1	 871.88	 581.26	 0	 0	 0	 0	 0	 0	 0	 0	 0	 0	 871.884;
	 35	 560.595	 11.37	 113.7	-90.96	 1	 100	 1	 917.82	 203.37	 0	 0	 0	 0	 0	 0	 0	 0	 0	 0	 917.82;
	 36	 0	 0	 33.33	-33.33	 1	 100	 0	 285	 0	 0	 0	 0	 0	 0	 0	 0	 0	 0	 0	 285;
	 36	 0	 0	 33.33	-33.33	 1	 100	 0	 263	 0	 0	 0	 0	 0	 0	 0	 0	 0	 0	 0	 263;
	 37	 0	 0	 33.33	-33.33	 1	 100	 0	 256	 0	 0	 0	 0	 0	 0	 0	 0	 0	 0	 0	 256;
	 37	 0	 0	 33.33	-33.33	 1	 100	 0	 292	 0	 0	 0	 0	 0	 0	 0	 0	 0	 0	 0	 292;
	 38	 1666.29	 0	 205.53	-205.53	 1	 100	 1	 1966.77	 1365.81	 0	 0	 0	 0	 0	 0	 0	 0	 0	 0	 1966.771;
	 43	 0	 0	 33.33	-33.33	 1	 100	 0	 269	 0	 0	 0	 0	 0	 0	 0	 0	 0	 0	 0	 269;
	 43	 0	 0	 33.33	-33.33	 1	 100	 0	 269	 0	 0	 0	 0	 0	 0	 0	 0	 0	 0	 0	 269;
	 52	 0	 0	 33.33	-33.33	 1	 100	 0	 95.92	 80.92	 0	 0	 0	 0	 0	 0	 0	 0	 0	 0	 95.919;
	 59	 394.02	 0	 121.05	-121.05	 1	 100	 1	 451.68	 336.36	 0	 0	 0	 0	 0	 0	 0	 0	 0	 0	 451.68;
	 60	 303.1	 2.265	 24.78	-20.25	 1	 100	 1	 363.72	 242.48	 0	 0	 0	 0	 0	 0	 0	 0	 0	 0	 363.72;
	 61	 249.06	 1.695	 16.98	-13.59	 1	 100	 1	 287.55	 210.57	 0	 0	 0	 0	 0	 0	 0	 0	 0	 0	 287.547;
	 77	 0	 0	 33.33	-33.33	 1	 100	 0	 256	 0	 0	 0	 0	 0	 0	 0	 0	 0	 0	 0	 256;
	 78	 0	 0	 33.33	-33.33	 1	 100	 0	 251	 0	 0	 0	 0	 0	 0	 0	 0	 0	 0	 0	 251;
	 89	 126.565	 0	 182.25	-182.25	 1	 100	 1	 253.13	 0	 0	 0	 0	 0	 0	 0	 0	 0	 0	 0	 253.125;
	 90	 126.565	 0	 182.25	-182.25	 1	 100	 1	 253.13	 0	 0	 0	 0	 0	 0	 0	 0	 0	 0	 0	 253.125;
	 91	 126.565	 0	 182.25	-182.25	 1	 100	 1	 253.13	 0	 0	 0	 0	 0	 0	 0	 0	 0	 0	 0	 253.125;
	 93	 206.08	 0	 370.95	-370.95	 1	 100	 1	 412.16	 0	 0	 0	 0	 0	 0	 0	 0	 0	 0	 0	 412.164;
	 138	 209.575	 0	 377.23	-377.23	 1	 100	 1	 419.15	 0	 0	 0	 0	 0	 0	 0	 0	 0	 0	 0	 419.147;
	 153	 201.725	 0	 363.1	-363.1	 1	 100	 1	 403.45	 0	 0	 0	 0	 0	 0	 0	 0	 0	 0	 0	 403.446;
	 154	 201.725	 0	 363.1	-363.1	 1	 100	 1	 403.45	 0	 0	 0	 0	 0	 0	 0	 0	 0	 0	 0	 403.446;
	 155	 201.725	 0	 363.1	-363.1	 1	 100	 1	 403.45	 0	 0	 0	 0	 0	 0	 0	 0	 0	 0	 0	 403.446;
	 157	 201.99	 0	 363.58	-363.58	 1	 100	 1	 403.98	 0	 0	 0	 0	 0	 0	 0	 0	 0	 0	 0	 403.976;
	 158	 201.99	 0	 363.58	-363.58	 1	 100	 1	 403.98	 0	 0	 0	 0	 0	 0	 0	 0	 0	 0	 0	 403.976;
	 159	 202.01	 0	 363.62	-363.62	 1	 100	 1	 404.02	 0	 0	 0	 0	 0	 0	 0	 0	 0	 0	 0	 404.019;
	 161	 201.06	 0	 361.9	-361.9	 1	 100	 1	 402.12	 0	 0	 0	 0	 0	 0	 0	 0	 0	 0	 0	 402.115;
	 162	 201.08	 0	 361.94	-361.94	 1	 100	 1	 402.16	 0	 0	 0	 0	 0	 0	 0	 0	 0	 0	 0	 402.157;
	 164	 143.905	 0	 207.23	-207.23	 1	 100	 1	 287.81	 0	 0	 0	 0	 0	 0	 0	 0	 0	 0	 0	 287.812;
	 165	 143.905	 0	 207.23	-207.23	 1	 100	 1	 287.81	 0	 0	 0	 0	 0	 0	 0	 0	 0	 0	 0	 287.812;
	 166	 143.905	 0	 207.23	-207.23	 1	 100	 1	 287.81	 0	 0	 0	 0	 0	 0	 0	 0	 0	 0	 0	 287.812;
	 167	 143.905	 0	 207.23	-207.23	 1	 100	 1	 287.81	 0	 0	 0	 0	 0	 0	 0	 0	 0	 0	 0	 287.812;
	 169	 143.905	 0	 207.23	-207.23	 1	 100	 1	 287.81	 0	 0	 0	 0	 0	 0	 0	 0	 0	 0	 0	 287.812;
	 170	 143.905	 0	 207.23	-207.23	 1	 100	 1	 287.81	 0	 0	 0	 0	 0	 0	 0	 0	 0	 0	 0	 287.812;
	 171	 143.905	 0	 207.23	-207.23	 1	 100	 1	 287.81	 0	 0	 0	 0	 0	 0	 0	 0	 0	 0	 0	 287.812;
	 172	 143.905	 0	 207.23	-207.23	 1	 100	 1	 287.81	 0	 0	 0	 0	 0	 0	 0	 0	 0	 0	 0	 287.812;
	 173	 195.995	 0	 352.8	-352.8	 1	 100	 1	 391.99	 0	 0	 0	 0	 0	 0	 0	 0	 0	 0	 0	 391.994;
	 174	 196.035	 0	 352.86	-352.86	 1	 100	 1	 392.07	 0	 0	 0	 0	 0	 0	 0	 0	 0	 0	 0	 392.066;
	 175	 0	 0	 33.33	-33.33	 1	 100	 0	 256	 0	 0	 0	 0	 0	 0	 0	 0	 0	 0	 0	 256;
	 176	 530.865	 5.92	 92.56	-80.72	 1	 100	 1	 866.3	 195.43	 0	 0	 0	 0	 0	 0	 0	 0	 0	 0	 866.304;
	 187	 0	 0	 33.33	-33.33	 1	 100	 0	 435.77	 420.77	 0	 0	 0	 0	 0	 0	 0	 0	 0	 0	 435.775;
	 188	 0	 0	 33.33	-33.33	 1	 100	 0	 416.09	 401.09	 0	 0	 0	 0	 0	 0	 0	 0	 0	 0	 416.091;
	 194	 0	 0	 33.33	-33.33	 1	 100	 0	 84.05	 69.05	 0	 0	 0	 0	 0	 0	 0	 0	 0	 0	 84.051;
	 196	 57.52	 0	 58.47	-58.47	 1	 100	 1	 100	 15.04	 0	 0	 0	 0	 0	 0	 0	 0	 0	 0	 100.001;
	 226	 724.965	-19.505	 285.03	-324.04	 1	 100	 1	 1356.89	 93.04	 0	 0	 0	 0	 0	 0	 0	 0	 0	 0	 1356.894;
	 227	 201.99	 0	 363.58	-363.58	 1	 100	 1	 403.98	 0	 0	 0	 0	 0	 0	 0	 0	 0	 0	 0	 403.976;
	 228	 201.99	 0	 363.58	-363.58	 1	 100	 1	 403.98	 0	 0	 0	 0	 0	 0	 0	 0	 0	 0	 0	 403.976;
	 229	 202.01	 0	 363.62	-363.62	 1	 100	 1	 404.02	 0	 0	 0	 0	 0	 0	 0	 0	 0	 0	 0	 404.019;
	 230	 0	 0	 33.33	-33.33	 1	 100	 0	 915.05	 900.05	 0	 0	 0	 0	 0	 0	 0	 0	 0	 0	 915.05;
	 231	 201.72	 0	 363.1	-363.1	 1	 100	 1	 403.44	 0	 0	 0	 0	 0	 0	 0	 0	 0	 0	 0	 403.442;
	 232	 201.915	 0	 363.45	-363.45	 1	 100	 1	 403.83	 0	 0	 0	 0	 0	 0	 0	 0	 0	 0	 0	 403.829;
	 234	 209.935	 0	 377.88	-377.88	 1	 100	 1	 419.87	 0	 0	 0	 0	 0	 0	 0	 0	 0	 0	 0	 419.868;
	 235	 210.25	 0	 378.45	-378.45	 1	 100	 1	 420.5	 0	 0	 0	 0	 0	 0	 0	 0	 0	 0	 0	 420.501;
	 237	 210.63	 0	 379.13	-379.13	 1	 100	 1	 421.26	 0	 0	 0	 0	 0	 0	 0	 0	 0	 0	 0	 421.256;
	 238	 210.155	 0	 378.28	-378.28	 1	 100	 1	 420.31	 0	 0	 0	 0	 0	 0	 0	 0	 0	 0	 0	 420.314;
	 244	 838.26	 0	 123.2	-123.2	 1	 100	 1	 1199.83	 476.69	 0	 0	 0	 0	 0	 0	 0	 0	 0	 0	 1199.8311;
	 245	 892.94	 0	 195.45	-195.45	 1	 100	 1	 1053.96	 731.92	 0	 0	 0	 0	 0	 0	 0	 0	 0	 0	 1053.9611;
	 248	 0	 0	 33.33	-33.33	 1	 100	 0	 253	 0	 0	 0	 0	 0	 0	 0	 0	 0	 0	 0	 253;
	 252	 0	 0	 33.33	-33.33	 1	 100	 0	 295	 0	 0	 0	 0	 0	 0	 0	 0	 0	 0	 0	 295;
	 257	 0	 0	 33.33	-33.33	 1	 100	 0	 113.16	 98.16	 0	 0	 0	 0	 0	 0	 0	 0	 0	 0	 113.164;
	 258	 312	 0	 561.6	-561.6	 1	 100	 1	 624	 0	 0	 0	 0	 0	 0	 0	 0	 0	 0	 0	 623.996;
	 258	 0	 0	 33.33	-33.33	 1	 100	 0	 1061.52	 1046.52	 0	 0	 0	 0	 0	 0	 0	 0	 0	 0	 1061.519;
	 263	 0	 0	 33.33	-33.33	 1	 100	 0	 277	 0	 0	 0	 0	 0	 0	 0	 0	 0	 0	 0	 277;
	 265	 0	 0	 33.33	-33.33	 1	 100	 0	 293	 0	 0	 0	 0	 0	 0	 0	 0	 0	 0	 0	 293;
	 271	 0	 0	 33.33	-33.33	 1	 100	 0	 270	 0	 0	 0	 0	 0	 0	 0	 0	 0	 0	 0	 270;
	 274	 0	 0	 33.33	-33.33	 1	 100	 0	 250	 0	 0	 0	 0	 0	 0	 0	 0	 0	 0	 0	 250;
	 276	 0	 0	 33.33	-33.33	 1	 100	 0	 296	 0	 0	 0	 0	 0	 0	 0	 0	 0	 0	 0	 296;
	 308	 0	 0	 33.33	-33.33	 1	 100	 0	 270	 0	 0	 0	 0	 0	 0	 0	 0	 0	 0	 0	 270;
	 310	 0	 0	 33.33	-33.33	 1	 100	 0	 290	 0	 0	 0	 0	 0	 0	 0	 0	 0	 0	 0	 290;
	 311	 0	 0	 33.33	-33.33	 1	 100	 0	 261	 0	 0	 0	 0	 0	 0	 0	 0	 0	 0	 0	 261;
	 318	 0	 0	 33.33	-33.33	 1	 100	 0	 268	 0	 0	 0	 0	 0	 0	 0	 0	 0	 0	 0	 268;
	 319	 0	 0	 33.33	-33.33	 1	 100	 0	 284	 0	 0	 0	 0	 0	 0	 0	 0	 0	 0	 0	 284;
	 320	 0	 0	 33.33	-33.33	 1	 100	 0	 255	 0	 0	 0	 0	 0	 0	 0	 0	 0	 0	 0	 255;
	 322	 38.44	 0	 55.35	-55.35	 1	 100	 1	 76.88	 0	 0	 0	 0	 0	 0	 0	 0	 0	 0	 0	 76.875;
	 323	 38.44	 0	 55.35	-55.35	 1	 100	 1	 76.88	 0	 0	 0	 0	 0	 0	 0	 0	 0	 0	 0	 76.875;
	 324	 38.44	 0	 55.35	-55.35	 1	 100	 1	 76.88	 0	 0	 0	 0	 0	 0	 0	 0	 0	 0	 0	 76.875;
	 325	 38.44	 0	 55.35	-55.35	 1	 100	 1	 76.88	 0	 0	 0	 0	 0	 0	 0	 0	 0	 0	 0	 76.875;
	 326	 60	 0	 86.4	-86.4	 1	 100	 1	 120	 0	 0	 0	 0	 0	 0	 0	 0	 0	 0	 0	 120;
];

mpc_regionR2.branch = [
%	fbus        tbus        r           x           b           rateA       rateB       rateC       ratio       angle       status      angmin      angmax      
	 1	 2	 0.00057	 0.05251	 0	 397.35	 476.82	 715.23	 1.01	 0	 1	-30	 30;
	 1	 27	 1e-05	 0.00014	 0.0717	 387.41	 464.89	 697.33	 0	 0	 1	-30	 30;
	 3	 4	 0.00167	 0.07167	 0	 297.02	 356.43	 534.64	 1.0091	 0	 1	-30	 30;
	 3	 27	 0.00039	 0.00689	 0.2687	 1756.03	 2107.24	 3160.85	 0	 0	 1	-30	 30;
	 3	 184	 0.0001	 0.01	 0	 659.24	 791.09	 988.86	 0	 0	 1	-30	 30;
	 5	 33	 0.00113	 0.0121	 0.4573	 1584.11	 1900.94	 2851.41	 0	 0	 1	-30	 30;
	 5	 258	 0.0001	 0.01	 0	 788.67	 946.4	 1183	 0	 0	 1	-30	 30;
	 6	 7	 0.00167	 0.071	 0	 318.79	 382.55	 573.82	 1.01	 0	 1	-30	 30;
	 6	 8	 0.00127	 0.0639	 0	 320.36	 384.43	 576.65	 1.01	 0	 1	-30	 30;
	 6	 9	 0.00167	 0.07139	 0	 318.74	 382.49	 573.74	 1.01	 0	 1	-30	 30;
	 6	 10	 0.00098	 0.04423	 0	 423.97	 508.77	 763.15	 1.01	 0	 1	-30	 30;
	 6	 43	 0.00025	 0.00388	 0.1586	 822.29	 986.75	 1233.43	 0	 0	 1	-30	 30;
	 6	 46	 6e-05	 0.00088	 0.0358	 1385.97	 1663.17	 2078.96	 0	 0	 1	-30	 30;
	 70	 6	 0.0017	 0.08773	 0	 203.38	 244.05	 366.08	 1.01	 0	 1	-30	 30;
	 83	 6	 0.00138	 0.07978	 0	 203.98	 244.77	 367.16	 1.01	 0	 1	-30	 30;
	 11	 12	 0.00022	 0.01963	 0	 462.76	 555.31	 832.97	 1.01	 0	 1	-30	 30;
	 11	 13	 0.00022	 0.01968	 0	 462.57	 555.08	 832.62	 1.01	 0	 1	-30	 30;
	 11	 43	 0.00119	 0.01854	 0.7567	 290.47	 348.56	 435.7	 0	 0	 1	-30	 30;
	 11	 51	 0.00046	 0.00708	 0.2889	 476.17	 571.41	 857.11	 0	 0	 1	-30	 30;
	 11	 51	 0.00046	 0.00708	 0.2889	 476.17	 571.41	 857.11	 0	 0	 1	-30	 30;
	 11	 53	 0.00177	 0.01948	 0.6682	 245.79	 294.95	 442.43	 0	 0	 1	-30	 30;
	 75	 11	 0.00104	 0.07958	 0	 24.31	 29.17	 36.46	 0.99	 0	 1	-30	 30;
	 75	 11	 0.00104	 0.07958	 0	 25.11	 30.13	 37.66	 0.99	 0	 1	-30	 30;
	 76	 11	 0.00104	 0.07958	 0	 25.34	 30.41	 38.02	 0.99	 0	 1	-30	 30;
	 76	 11	 0.00104	 0.07958	 0	 25.4	 30.48	 38.1	 0.99	 0	 1	-30	 30;
	 14	 15	 0.00073	 0.02693	 0	 416.22	 499.47	 749.2	 1.01	 0	 1	-30	 30;
	 14	 16	 0.00075	 0.02713	 0	 415.79	 498.95	 748.42	 1.01	 0	 1	-30	 30;
	 14	 17	 0.00072	 0.02725	 0	 415.83	 499	 748.5	 1.01	 0	 1	-30	 30;
	 14	 18	 0.00073	 0.02713	 0	 415.93	 499.12	 748.68	 1.01	 0	 1	-30	 30;
	 14	 23	 0.00076	 0.01428	 0.5885	 1041.64	 1249.97	 1562.47	 0	 0	 1	-30	 30;
	 14	 27	 0.0003	 0.00469	 0.1916	 3096.98	 3716.37	 4645.47	 0	 0	 1	-30	 30;
...